*Heading
** Job name: DBBW-Macro-KC-NoParts Model name: DBBW-Macro-KC-NoParts
** Generated by: Abaqus/CAE 6.14-1
*Preprint, echo=NO, model=NO, history=NO, contact=NO
** ----------------------------------------------------------------
** 
** PART INSTANCE: column-1
** 
*System
          0.,          0.,       1304.,          1.,          0.,       1304.
*Node
      1,           0.,  -196.300003,        1100.
      2,           0.,  -196.300003,           0.
      3,         211.,  -196.300003,           0.
      4,         211.,  -196.300003,        1100.
      5,        -211.,  -196.300003,        1100.
      6,        -211.,  -196.300003,           0.
      7,           0.,   196.300003,        1100.
      8,           0.,   196.300003,           0.
      9,        -211.,   196.300003,        1100.
     10,        -211.,   196.300003,           0.
     11,         211.,   196.300003,           0.
     12,         211.,   196.300003,        1100.
     13,           0.,  -196.300003,        1050.
     14,           0.,  -196.300003,        1000.
     15,           0.,  -196.300003,         950.
     16,           0.,  -196.300003,         900.
     17,           0.,  -196.300003,         850.
     18,           0.,  -196.300003,         800.
     19,           0.,  -196.300003,         750.
     20,           0.,  -196.300003,         700.
** ... 555 like lines cut
*Element, type=S4R
 1,   1,  13, 177,  60
 2,  13,  14, 178, 177
 3,  14,  15, 179, 178
 4,  15,  16, 180, 179
 5,  16,  17, 181, 180
 6,  17,  18, 182, 181
 7,  18,  19, 183, 182
 8,  19,  20, 184, 183
 9,  20,  21, 185, 184
10,  21,  22, 186, 185
11,  22,  23, 187, 186
12,  23,  24, 188, 187
13,  24,  25, 189, 188
14,  25,  26, 190, 189
15,  26,  27, 191, 190
16,  27,  28, 192, 191
17,  28,  29, 193, 192
18,  29,  30, 194, 193
19,  30,  31, 195, 194
20,  31,  32, 196, 195
** ... 508 like lines cut
*Nset, nset=column-1_Set-1
   1,   2,   3,   4,   5,   6,   7,   8,   9,  10,  11,  12,  13,  14,  15,  16
  17,  18,  19,  20,  21,  22,  23,  24,  25,  26,  27,  28,  29,  30,  31,  32
  33,  34,  35,  36,  37,  38,  39,  40,  41,  42,  43,  44,  45,  46,  47,  48
  49,  50,  51,  52,  53,  54,  55,  56,  57,  58,  59,  60,  61,  62,  63,  64
  65,  66,  67,  68,  69,  70,  71,  72,  73,  74,  75,  76,  77,  78,  79,  80
  81,  82,  83,  84,  85,  86,  87, 102, 103, 104, 105, 106, 107, 108, 109, 110
 111, 112, 113, 114, 115, 116, 117, 118, 119, 120, 121, 122, 123, 124, 125, 126
 127, 128, 129, 130, 131, 132, 133, 134, 135, 136, 137, 138, 139, 140, 141, 142
 143, 144, 145, 146, 147, 148, 149, 150, 151, 152, 153, 154, 155, 156, 157, 158
 159, 160, 161, 162, 163, 164, 165, 166, 167, 168, 169, 170, 171, 172, 173, 174
 175, 176, 177, 178, 179, 180, 181, 182, 183, 184, 185, 186, 187, 188, 189, 190
 191, 192, 193, 194, 195, 196, 197, 198, 199, 200, 201, 202, 203, 204, 205, 206
 207, 208, 209, 210, 211, 212, 213, 214, 215, 216, 217, 218, 219, 220, 221, 222
 223, 224, 225, 226, 227, 228, 229, 230, 231, 232, 233, 234, 235, 236, 237, 238
 239, 240, 241, 242, 243, 244, 245, 246, 247, 248, 249, 250, 251, 252, 253, 254
 255, 256, 257, 258, 259, 260, 261, 262, 263, 264, 265, 266, 267, 268, 269, 270
 271, 272, 273, 274, 275, 276, 277, 278, 279, 280, 281, 282, 283, 284, 285, 286
 287, 288, 289, 290, 291, 292, 293, 294, 295, 296, 297, 298, 299, 300, 301, 302
 450, 451, 452, 453, 454, 455, 456, 457, 458, 459, 460, 461, 462, 463, 464, 465
 466, 467, 468, 469, 470, 471, 472, 473, 474, 475, 476, 477, 478, 479, 480, 481
** ... 6 like lines cut
*Elset, elset=column-1_Set-1
   1,   2,   3,   4,   5,   6,   7,   8,   9,  10,  11,  12,  13,  14,  15,  16
  17,  18,  19,  20,  21,  22,  23,  24,  25,  26,  27,  28,  29,  30,  31,  32
  33,  34,  35,  36,  37,  38,  39,  40,  41,  42,  43,  44,  45,  46,  47,  48
  49,  50,  51,  52,  53,  54,  55,  56,  57,  58,  59,  60,  61,  62,  63,  64
  65,  66,  67,  68,  69,  70,  71,  72,  73,  74,  75,  76,  77,  78,  79,  80
  81,  82,  83,  84,  85,  86,  87,  88,  89,  90,  91,  92,  93,  94,  95,  96
  97,  98,  99, 100, 101, 102, 103, 104, 105, 106, 107, 108, 109, 110, 111, 112
 113, 114, 115, 116, 117, 118, 119, 120, 121, 122, 123, 124, 125, 126, 127, 128
 129, 130, 131, 132, 133, 134, 135, 136, 137, 138, 139, 140, 141, 142, 143, 144
 145, 146, 147, 148, 149, 150, 151, 152, 153, 154, 155, 156, 157, 158, 159, 160
 161, 162, 163, 164, 165, 166, 167, 168, 169, 170, 171, 172, 173, 174, 175, 176
 353, 354, 355, 356, 357, 358, 359, 360, 361, 362, 363, 364, 365, 366, 367, 368
 369, 370, 371, 372, 373, 374, 375, 376, 377, 378, 379, 380, 381, 382, 383, 384
 385, 386, 387, 388, 389, 390, 391, 392, 393, 394, 395, 396, 397, 398, 399, 400
 401, 402, 403, 404, 405, 406, 407, 408, 409, 410, 411, 412, 413, 414, 415, 416
 417, 418, 419, 420, 421, 422, 423, 424, 425, 426, 427, 428, 429, 430, 431, 432
 433, 434, 435, 436, 437, 438, 439, 440, 441, 442, 443, 444, 445, 446, 447, 448
 449, 450, 451, 452, 453, 454, 455, 456, 457, 458, 459, 460, 461, 462, 463, 464
 465, 466, 467, 468, 469, 470, 471, 472, 473, 474, 475, 476, 477, 478, 479, 480
 481, 482, 483, 484, 485, 486, 487, 488, 489, 490, 491, 492, 493, 494, 495, 496
 497, 498, 499, 500, 501, 502, 503, 504, 505, 506, 507, 508, 509, 510, 511, 512
 513, 514, 515, 516, 517, 518, 519, 520, 521, 522, 523, 524, 525, 526, 527, 528
*Nset, nset=column-1_Set-2
   1,   2,   7,   8,  13,  14,  15,  16,  17,  18,  19,  20,  21,  22,  23,  24
  25,  26,  27,  28,  29,  30,  31,  32,  33,  88,  89,  90,  91,  92,  93,  94
  95,  96,  97,  98,  99, 100, 101, 102, 103, 104, 105, 106, 107, 108, 109, 110
 111, 112, 113, 114, 115, 116, 117, 118, 119, 120, 121, 122, 303, 304, 305, 306
 307, 308, 309, 310, 311, 312, 313, 314, 315, 316, 317, 318, 319, 320, 321, 322
 323, 324, 325, 326, 327, 328, 329, 330, 331, 332, 333, 334, 335, 336, 337, 338
 339, 340, 341, 342, 343, 344, 345, 346, 347, 348, 349, 350, 351, 352, 353, 354
 355, 356, 357, 358, 359, 360, 361, 362, 363, 364, 365, 366, 367, 368, 369, 370
 371, 372, 373, 374, 375, 376, 377, 378, 379, 380, 381, 382, 383, 384, 385, 386
 387, 388, 389, 390, 391, 392, 393, 394, 395, 396, 397, 398, 399, 400, 401, 402
 403, 404, 405, 406, 407, 408, 409, 410, 411, 412, 413, 414, 415, 416, 417, 418
 419, 420, 421, 422, 423, 424, 425, 426, 427, 428, 429, 430, 431, 432, 433, 434
 435, 436, 437, 438, 439, 440, 441, 442, 443, 444, 445, 446, 447, 448, 449
*Elset, elset=column-1_Set-2, generate
 177,  352,    1
*Nset, nset=column-1_top_interf
   1,   4,   5,   7,   9,  12,  58,  59,  60,  61,  62,  63,  88,  89,  90,  91
  92,  93,  94, 123, 124, 125, 174, 175, 176
*Elset, elset=column-1_top_interf
   1,  23,  45,  67, 110, 132, 154, 176, 177, 178, 179, 180, 181, 182, 183, 184
 374, 396, 418, 440, 441, 463, 485, 507
*Nset, nset=column-1_bot_interf
   2,   3,   6,   8,  10,  11,  34,  35,  36,  85,  86,  87,  95,  96,  97,  98
  99, 100, 101, 147, 148, 149, 150, 151, 152
*Elset, elset=column-1_bot_interf
  22,  44,  66,  88,  89, 111, 133, 155, 345, 346, 347, 348, 349, 350, 351, 352
 353, 375, 397, 419, 462, 484, 506, 528
*Nset, nset=column-1_all_nodes, generate
   1,  575,    1
*Elset, elset=column-1_all_nodes, generate
   1,  528,    1
** Section: col_flange
*Shell Section, elset=column-1_Set-1, material=steel_sac-avg
72.4, 5
** Section: col_web
*Shell Section, elset=column-1_Set-2, material=steel_sac-avg
45., 5
** ----------------------------------------------------------------
** 
** PART INSTANCE: beam-1
** 
*System
          0.,      -196.3,       1854.,          1.,      -196.3,       1854.
          0.,      -196.3,       1855.
*Node
    576,        152.5,  -444.049988,         200.
    577,           0.,  -444.049988,         200.
    578,           0.,  -444.049988,           0.
    579,        152.5,  -444.049988,           0.
    580,        152.5,   444.049988,         200.
    581,           0.,   444.049988,         200.
    582,           0.,   444.049988,           0.
    583,        152.5,   444.049988,           0.
    584,       -152.5,  -444.049988,         200.
    585,       -152.5,  -444.049988,           0.
    586,       -152.5,   444.049988,         200.
    587,       -152.5,   444.049988,           0.
    588,       -152.5,  -444.049988,   228.397263
    589,           0.,  -444.049988,         950.
    590,       -152.5,  -444.049988,   914.400024
    591,       -152.5,  -444.049988,         950.
    592,       -152.5,   444.049988,   228.397263
    593,           0.,   444.049988,         950.
    594,       -152.5,   444.049988,   914.400024
    595,       -152.5,   444.049988,         950.
** ... 1065 like lines cut
*Element, type=S4R
529, 576, 602, 861, 611
530, 602, 603, 862, 861
531, 603, 577, 604, 862
532, 611, 861, 863, 610
533, 861, 862, 864, 863
534, 862, 604, 605, 864
535, 610, 863, 865, 609
536, 863, 864, 866, 865
537, 864, 605, 606, 866
538, 609, 865, 608, 579
539, 865, 866, 607, 608
540, 866, 606, 578, 607
541, 580, 612, 867, 621
542, 612, 613, 868, 867
543, 613, 581, 614, 868
544, 621, 867, 869, 620
545, 867, 868, 870, 869
546, 868, 614, 615, 870
547, 620, 869, 871, 619
548, 869, 870, 872, 871
** ... 1000 like lines cut
*Nset, nset=beam-1_Set-1
  576,  577,  578,  579,  580,  581,  582,  583,  584,  585,  586,  587,  588,  589,  590,  591
  592,  593,  594,  595,  596,  597,  598,  599,  600,  601,  602,  603,  604,  605,  606,  607
  608,  609,  610,  611,  612,  613,  614,  615,  616,  617,  618,  619,  620,  621,  622,  623
  624,  625,  626,  627,  628,  663,  664,  665,  666,  667,  668,  669,  670,  671,  672,  673
  674,  675,  676,  677,  678,  679,  680,  681,  682,  683,  684,  685,  686,  687,  688,  689
  690,  691,  692,  693,  694,  695,  696,  697,  698,  699,  700,  701,  702,  703,  704,  705
  706,  707,  708,  709,  710,  711,  712,  713,  714,  715,  716,  717,  718,  719,  720,  721
  722,  723,  724,  725,  726,  727,  728,  729,  730,  731,  732,  733,  734,  735,  736,  737
  738,  739,  740,  741,  742,  743,  744,  745,  746,  747,  748,  749,  750,  751,  752,  753
  754,  755,  756,  757,  758,  759,  760,  761,  762,  763,  764,  765,  766,  767,  768,  769
  770,  771,  772,  773,  774,  775,  776,  777,  778,  779,  780,  781,  782,  783,  784,  785
  803,  804,  805,  806,  807,  808,  809,  810,  811,  812,  813,  814,  815,  816,  817,  818
  819,  820,  821,  822,  823,  824,  825,  826,  827,  828,  829,  830,  831,  832,  833,  834
  835,  836,  837,  838,  839,  840,  841,  842,  843,  844,  845,  846,  847,  848,  849,  850
  851,  852,  853,  854,  855,  856,  857,  858,  859,  860,  861,  862,  863,  864,  865,  866
  867,  868,  869,  870,  871,  872,  873,  874,  875,  876,  877,  878,  930,  931,  932,  933
  934,  935,  936,  937,  938,  939,  940,  941,  942,  943,  944,  945,  946,  947,  948,  949
  950,  951,  952,  953,  954,  955,  956,  957,  958,  959,  960,  961,  962,  963,  964,  965
  966,  967,  968,  969,  970,  971,  972,  973,  974,  975,  976,  977,  978,  979,  980,  981
  982,  983,  984,  985,  986,  987,  988,  989,  990,  991,  992,  993,  994,  995,  996,  997
** ... 11 like lines cut
*Elset, elset=beam-1_Set-1
  529,  530,  531,  532,  533,  534,  535,  536,  537,  538,  539,  540,  541,  542,  543,  544
  545,  546,  547,  548,  549,  550,  551,  552,  553,  554,  555,  556,  557,  558,  559,  560
  561,  562,  563,  564,  637,  638,  639,  640,  641,  642,  643,  644,  645,  646,  647,  648
  649,  650,  651,  652,  653,  654,  655,  656,  657,  658,  659,  660,  661,  662,  663,  664
  665,  666,  667,  668,  669,  670,  671,  672,  673,  674,  675,  676,  677,  678,  679,  680
  681,  682,  683,  684,  685,  686,  687,  688,  689,  690,  691,  692,  693,  694,  695,  696
  697,  698,  699,  700,  701,  702,  703,  704,  705,  706,  707,  708,  709,  710,  711,  712
  713,  714,  715,  716,  717,  718,  719,  720,  721,  722,  723,  724,  725,  726,  727,  728
  729,  730,  731,  732,  733,  734,  735,  736,  737,  738,  739,  740,  741,  742,  743,  744
  745,  746,  747,  748,  749,  750,  751,  752,  753,  754,  755,  756,  757,  758,  759,  760
  761,  762,  763,  764,  765,  766,  767,  768,  769,  770,  771,  772,  773,  774,  775,  776
  777,  778,  779,  780,  781,  782,  783,  784,  785,  786,  787,  788,  789,  790,  791,  792
  793,  794,  795,  796,  797,  798,  799,  800,  801,  802,  803,  804,  805,  806,  807,  808
  809,  810,  811,  812,  813,  814,  815,  816,  817,  818,  819,  820,  821,  822,  823,  824
  825,  826,  827,  828, 1369, 1370, 1371, 1372, 1373, 1374, 1375, 1376, 1377, 1378, 1379, 1380
 1381, 1382, 1383, 1384, 1385, 1386, 1387, 1388, 1389, 1390, 1391, 1392, 1393, 1394, 1395, 1396
 1397, 1398, 1399, 1400, 1401, 1402, 1403, 1404, 1405, 1406, 1407, 1408, 1409, 1410, 1411, 1412
 1413, 1414, 1415, 1416, 1417, 1418, 1419, 1420, 1421, 1422, 1423, 1424, 1425, 1426, 1427, 1428
 1429, 1430, 1431, 1432, 1433, 1434, 1435, 1436, 1437, 1438, 1439, 1440, 1441, 1442, 1443, 1444
 1445, 1446, 1447, 1448, 1449, 1450, 1451, 1452, 1453, 1454, 1455, 1456, 1457, 1458, 1459, 1460
** ... 6 like lines cut
*Nset, nset=beam-1_Set-2
 577, 578, 581, 582, 589, 593, 604, 605, 606, 614, 615, 616, 629, 630, 631, 632
 633, 634, 635, 636, 637, 638, 639, 640, 641, 642, 643, 644, 645, 646, 647, 648
 649, 650, 651, 652, 653, 654, 655, 656, 657, 658, 659, 660, 661, 662, 670, 671
 672, 673, 674, 675, 676, 677, 678, 679, 680, 681, 682, 683, 684, 685, 686, 687
 688, 689, 690, 691, 692, 693, 694, 695, 696, 697, 698, 728, 729, 730, 731, 732
 733, 734, 735, 736, 737, 738, 739, 740, 741, 742, 743, 744, 745, 746, 747, 748
 749, 750, 751, 752, 753, 754, 755, 756, 786, 787, 788, 789, 790, 791, 792, 793
 794, 795, 796, 797, 798, 799, 800, 801, 802, 879, 880, 881, 882, 883, 884, 885
 886, 887, 888, 889, 890, 891, 892, 893, 894, 895, 896, 897, 898, 899, 900, 901
 902, 903, 904, 905, 906, 907, 908, 909, 910, 911, 912, 913, 914, 915, 916, 917
 918, 919, 920, 921, 922, 923, 924, 925, 926, 927, 928, 929,1052,1053,1054,1055
1056,1057,1058,1059,1060,1061,1062,1063,1064,1065,1066,1067,1068,1069,1070,1071
1072,1073,1074,1075,1076,1077,1078,1079,1080,1081,1082,1083,1084,1085,1086,1087
1088,1089,1090,1091,1092,1093,1094,1095,1096,1097,1098,1099,1100,1101,1102,1103
1104,1105,1106,1107,1108,1109,1110,1111,1112,1113,1114,1115,1116,1117,1118,1119
1120,1121,1122,1123,1124,1125,1126,1127,1128,1129,1130,1131,1132,1133,1134,1135
1136,1137,1138,1139,1140,1141,1142,1143,1144,1145,1146,1147,1148,1149,1150,1151
1152,1153,1154,1155,1156,1157,1158,1159,1160,1161,1162,1163,1164,1165,1166,1167
1168,1169,1170,1171,1172,1173,1174,1175,1176,1177,1178,1179,1180,1181,1182,1183
1184,1185,1186,1187,1188,1189,1190,1191,1192,1193,1194,1195,1196,1197,1198,1199
** ... 22 like lines cut
*Elset, elset=beam-1_Set-2
 565, 566, 567, 568, 569, 570, 571, 572, 573, 574, 575, 576, 577, 578, 579, 580
 581, 582, 583, 584, 585, 586, 587, 588, 589, 590, 591, 592, 593, 594, 595, 596
 597, 598, 599, 600, 601, 602, 603, 604, 605, 606, 607, 608, 609, 610, 611, 612
 613, 614, 615, 616, 617, 618, 619, 620, 621, 622, 623, 624, 625, 626, 627, 628
 629, 630, 631, 632, 633, 634, 635, 636, 829, 830, 831, 832, 833, 834, 835, 836
 837, 838, 839, 840, 841, 842, 843, 844, 845, 846, 847, 848, 849, 850, 851, 852
 853, 854, 855, 856, 857, 858, 859, 860, 861, 862, 863, 864, 865, 866, 867, 868
 869, 870, 871, 872, 873, 874, 875, 876, 877, 878, 879, 880, 881, 882, 883, 884
 885, 886, 887, 888, 889, 890, 891, 892, 893, 894, 895, 896, 897, 898, 899, 900
 901, 902, 903, 904, 905, 906, 907, 908, 909, 910, 911, 912, 913, 914, 915, 916
 917, 918, 919, 920, 921, 922, 923, 924, 925, 926, 927, 928, 929, 930, 931, 932
 933, 934, 935, 936, 937, 938, 939, 940, 941, 942, 943, 944, 945, 946, 947, 948
 949, 950, 951, 952, 953, 954, 955, 956, 957, 958, 959, 960, 961, 962, 963, 964
 965, 966, 967, 968, 969, 970, 971, 972, 973, 974, 975, 976, 977, 978, 979, 980
 981, 982, 983, 984, 985, 986, 987, 988, 989, 990, 991, 992, 993, 994, 995, 996
 997, 998, 999,1000,1001,1002,1003,1004,1005,1006,1007,1008,1009,1010,1011,1012
1013,1014,1015,1016,1017,1018,1019,1020,1021,1022,1023,1024,1025,1026,1027,1028
1029,1030,1031,1032,1033,1034,1035,1036,1037,1038,1039,1040,1041,1042,1043,1044
1045,1046,1047,1048,1049,1050,1051,1052,1053,1054,1055,1056,1057,1058,1059,1060
1061,1062,1063,1064,1065,1066,1067,1068,1069,1070,1071,1072,1073,1074,1075,1076
** ... 19 like lines cut
*Nset, nset=beam-1_beam_col_interf
578,579,582,583,585,587,607,608,617,618,627,628,646,647,648,649
650,651,652,653,654,655,656,657,658,659,660,661,662,668,669
*Elset, elset=beam-1_beam_col_interf
 538, 539, 540, 550, 551, 552, 562, 563, 564, 619, 620, 621, 622, 623, 624, 625
 626, 627, 628, 629, 630, 631, 632, 633, 634, 635, 636, 646, 647, 648
*Nset, nset=beam-1_beam_couple_interf
 589, 591, 593, 595, 598, 601, 699, 700, 757, 758, 786, 787, 788, 789, 790, 791
 792, 793, 794, 795, 796, 797, 798, 799, 800, 801, 802, 830, 831, 859, 860
*Elset, elset=beam-1_beam_couple_interf
  736,  737,  738,  826,  827,  828, 1351, 1352, 1353, 1354, 1355, 1356, 1357, 1358, 1359, 1360
 1361, 1362, 1363, 1364, 1365, 1366, 1367, 1368, 1456, 1457, 1458, 1546, 1547, 1548
*Nset, nset=beam-1_all_nodes, generate
  576,  1660,     1
*Elset, elset=beam-1_all_nodes, generate
  529,  1548,     1
** Section: beam_flange
*Shell Section, elset=beam-1_Set-1, material=steel_sac-avg
23.9, 5
** Section: beam_web
*Shell Section, elset=beam-1_Set-2, material=steel_sac-avg
15.9, 5
** ----------------------------------------------------------------
** 
** PART INSTANCE: beam-2
** 
*System
          0.,       196.3,       1854.,          1.,       196.3,       1854.
          0.,       196.3,       1853.
*Node
   1661,        152.5,  -444.049988,         200.
   1662,           0.,  -444.049988,         200.
   1663,           0.,  -444.049988,           0.
   1664,        152.5,  -444.049988,           0.
   1665,        152.5,   444.049988,         200.
   1666,           0.,   444.049988,         200.
   1667,           0.,   444.049988,           0.
   1668,        152.5,   444.049988,           0.
   1669,       -152.5,  -444.049988,         200.
   1670,       -152.5,  -444.049988,           0.
   1671,       -152.5,   444.049988,         200.
   1672,       -152.5,   444.049988,           0.
   1673,       -152.5,  -444.049988,   228.397263
   1674,           0.,  -444.049988,         950.
   1675,       -152.5,  -444.049988,   914.400024
   1676,       -152.5,  -444.049988,         950.
   1677,       -152.5,   444.049988,   228.397263
   1678,           0.,   444.049988,         950.
   1679,       -152.5,   444.049988,   914.400024
   1680,       -152.5,   444.049988,         950.
** ... 1065 like lines cut
*Element, type=S4R
1549, 1661, 1687, 1946, 1696
1550, 1687, 1688, 1947, 1946
1551, 1688, 1662, 1689, 1947
1552, 1696, 1946, 1948, 1695
1553, 1946, 1947, 1949, 1948
1554, 1947, 1689, 1690, 1949
1555, 1695, 1948, 1950, 1694
1556, 1948, 1949, 1951, 1950
1557, 1949, 1690, 1691, 1951
1558, 1694, 1950, 1693, 1664
1559, 1950, 1951, 1692, 1693
1560, 1951, 1691, 1663, 1692
1561, 1665, 1697, 1952, 1706
1562, 1697, 1698, 1953, 1952
1563, 1698, 1666, 1699, 1953
1564, 1706, 1952, 1954, 1705
1565, 1952, 1953, 1955, 1954
1566, 1953, 1699, 1700, 1955
1567, 1705, 1954, 1956, 1704
1568, 1954, 1955, 1957, 1956
** ... 1000 like lines cut
*Nset, nset=beam-2_Set-1
 1661, 1662, 1663, 1664, 1665, 1666, 1667, 1668, 1669, 1670, 1671, 1672, 1673, 1674, 1675, 1676
 1677, 1678, 1679, 1680, 1681, 1682, 1683, 1684, 1685, 1686, 1687, 1688, 1689, 1690, 1691, 1692
 1693, 1694, 1695, 1696, 1697, 1698, 1699, 1700, 1701, 1702, 1703, 1704, 1705, 1706, 1707, 1708
 1709, 1710, 1711, 1712, 1713, 1748, 1749, 1750, 1751, 1752, 1753, 1754, 1755, 1756, 1757, 1758
 1759, 1760, 1761, 1762, 1763, 1764, 1765, 1766, 1767, 1768, 1769, 1770, 1771, 1772, 1773, 1774
 1775, 1776, 1777, 1778, 1779, 1780, 1781, 1782, 1783, 1784, 1785, 1786, 1787, 1788, 1789, 1790
 1791, 1792, 1793, 1794, 1795, 1796, 1797, 1798, 1799, 1800, 1801, 1802, 1803, 1804, 1805, 1806
 1807, 1808, 1809, 1810, 1811, 1812, 1813, 1814, 1815, 1816, 1817, 1818, 1819, 1820, 1821, 1822
 1823, 1824, 1825, 1826, 1827, 1828, 1829, 1830, 1831, 1832, 1833, 1834, 1835, 1836, 1837, 1838
 1839, 1840, 1841, 1842, 1843, 1844, 1845, 1846, 1847, 1848, 1849, 1850, 1851, 1852, 1853, 1854
 1855, 1856, 1857, 1858, 1859, 1860, 1861, 1862, 1863, 1864, 1865, 1866, 1867, 1868, 1869, 1870
 1888, 1889, 1890, 1891, 1892, 1893, 1894, 1895, 1896, 1897, 1898, 1899, 1900, 1901, 1902, 1903
 1904, 1905, 1906, 1907, 1908, 1909, 1910, 1911, 1912, 1913, 1914, 1915, 1916, 1917, 1918, 1919
 1920, 1921, 1922, 1923, 1924, 1925, 1926, 1927, 1928, 1929, 1930, 1931, 1932, 1933, 1934, 1935
 1936, 1937, 1938, 1939, 1940, 1941, 1942, 1943, 1944, 1945, 1946, 1947, 1948, 1949, 1950, 1951
 1952, 1953, 1954, 1955, 1956, 1957, 1958, 1959, 1960, 1961, 1962, 1963, 2015, 2016, 2017, 2018
 2019, 2020, 2021, 2022, 2023, 2024, 2025, 2026, 2027, 2028, 2029, 2030, 2031, 2032, 2033, 2034
 2035, 2036, 2037, 2038, 2039, 2040, 2041, 2042, 2043, 2044, 2045, 2046, 2047, 2048, 2049, 2050
 2051, 2052, 2053, 2054, 2055, 2056, 2057, 2058, 2059, 2060, 2061, 2062, 2063, 2064, 2065, 2066
 2067, 2068, 2069, 2070, 2071, 2072, 2073, 2074, 2075, 2076, 2077, 2078, 2079, 2080, 2081, 2082
** ... 11 like lines cut
*Elset, elset=beam-2_Set-1
 1549, 1550, 1551, 1552, 1553, 1554, 1555, 1556, 1557, 1558, 1559, 1560, 1561, 1562, 1563, 1564
 1565, 1566, 1567, 1568, 1569, 1570, 1571, 1572, 1573, 1574, 1575, 1576, 1577, 1578, 1579, 1580
 1581, 1582, 1583, 1584, 1657, 1658, 1659, 1660, 1661, 1662, 1663, 1664, 1665, 1666, 1667, 1668
 1669, 1670, 1671, 1672, 1673, 1674, 1675, 1676, 1677, 1678, 1679, 1680, 1681, 1682, 1683, 1684
 1685, 1686, 1687, 1688, 1689, 1690, 1691, 1692, 1693, 1694, 1695, 1696, 1697, 1698, 1699, 1700
 1701, 1702, 1703, 1704, 1705, 1706, 1707, 1708, 1709, 1710, 1711, 1712, 1713, 1714, 1715, 1716
 1717, 1718, 1719, 1720, 1721, 1722, 1723, 1724, 1725, 1726, 1727, 1728, 1729, 1730, 1731, 1732
 1733, 1734, 1735, 1736, 1737, 1738, 1739, 1740, 1741, 1742, 1743, 1744, 1745, 1746, 1747, 1748
 1749, 1750, 1751, 1752, 1753, 1754, 1755, 1756, 1757, 1758, 1759, 1760, 1761, 1762, 1763, 1764
 1765, 1766, 1767, 1768, 1769, 1770, 1771, 1772, 1773, 1774, 1775, 1776, 1777, 1778, 1779, 1780
 1781, 1782, 1783, 1784, 1785, 1786, 1787, 1788, 1789, 1790, 1791, 1792, 1793, 1794, 1795, 1796
 1797, 1798, 1799, 1800, 1801, 1802, 1803, 1804, 1805, 1806, 1807, 1808, 1809, 1810, 1811, 1812
 1813, 1814, 1815, 1816, 1817, 1818, 1819, 1820, 1821, 1822, 1823, 1824, 1825, 1826, 1827, 1828
 1829, 1830, 1831, 1832, 1833, 1834, 1835, 1836, 1837, 1838, 1839, 1840, 1841, 1842, 1843, 1844
 1845, 1846, 1847, 1848, 2389, 2390, 2391, 2392, 2393, 2394, 2395, 2396, 2397, 2398, 2399, 2400
 2401, 2402, 2403, 2404, 2405, 2406, 2407, 2408, 2409, 2410, 2411, 2412, 2413, 2414, 2415, 2416
 2417, 2418, 2419, 2420, 2421, 2422, 2423, 2424, 2425, 2426, 2427, 2428, 2429, 2430, 2431, 2432
 2433, 2434, 2435, 2436, 2437, 2438, 2439, 2440, 2441, 2442, 2443, 2444, 2445, 2446, 2447, 2448
 2449, 2450, 2451, 2452, 2453, 2454, 2455, 2456, 2457, 2458, 2459, 2460, 2461, 2462, 2463, 2464
 2465, 2466, 2467, 2468, 2469, 2470, 2471, 2472, 2473, 2474, 2475, 2476, 2477, 2478, 2479, 2480
** ... 6 like lines cut
*Nset, nset=beam-2_Set-2
1662,1663,1666,1667,1674,1678,1689,1690,1691,1699,1700,1701,1714,1715,1716,1717
1718,1719,1720,1721,1722,1723,1724,1725,1726,1727,1728,1729,1730,1731,1732,1733
1734,1735,1736,1737,1738,1739,1740,1741,1742,1743,1744,1745,1746,1747,1755,1756
1757,1758,1759,1760,1761,1762,1763,1764,1765,1766,1767,1768,1769,1770,1771,1772
1773,1774,1775,1776,1777,1778,1779,1780,1781,1782,1783,1813,1814,1815,1816,1817
1818,1819,1820,1821,1822,1823,1824,1825,1826,1827,1828,1829,1830,1831,1832,1833
1834,1835,1836,1837,1838,1839,1840,1841,1871,1872,1873,1874,1875,1876,1877,1878
1879,1880,1881,1882,1883,1884,1885,1886,1887,1964,1965,1966,1967,1968,1969,1970
1971,1972,1973,1974,1975,1976,1977,1978,1979,1980,1981,1982,1983,1984,1985,1986
1987,1988,1989,1990,1991,1992,1993,1994,1995,1996,1997,1998,1999,2000,2001,2002
2003,2004,2005,2006,2007,2008,2009,2010,2011,2012,2013,2014,2137,2138,2139,2140
2141,2142,2143,2144,2145,2146,2147,2148,2149,2150,2151,2152,2153,2154,2155,2156
2157,2158,2159,2160,2161,2162,2163,2164,2165,2166,2167,2168,2169,2170,2171,2172
2173,2174,2175,2176,2177,2178,2179,2180,2181,2182,2183,2184,2185,2186,2187,2188
2189,2190,2191,2192,2193,2194,2195,2196,2197,2198,2199,2200,2201,2202,2203,2204
2205,2206,2207,2208,2209,2210,2211,2212,2213,2214,2215,2216,2217,2218,2219,2220
2221,2222,2223,2224,2225,2226,2227,2228,2229,2230,2231,2232,2233,2234,2235,2236
2237,2238,2239,2240,2241,2242,2243,2244,2245,2246,2247,2248,2249,2250,2251,2252
2253,2254,2255,2256,2257,2258,2259,2260,2261,2262,2263,2264,2265,2266,2267,2268
2269,2270,2271,2272,2273,2274,2275,2276,2277,2278,2279,2280,2281,2282,2283,2284
** ... 22 like lines cut
*Elset, elset=beam-2_Set-2
1585,1586,1587,1588,1589,1590,1591,1592,1593,1594,1595,1596,1597,1598,1599,1600
1601,1602,1603,1604,1605,1606,1607,1608,1609,1610,1611,1612,1613,1614,1615,1616
1617,1618,1619,1620,1621,1622,1623,1624,1625,1626,1627,1628,1629,1630,1631,1632
1633,1634,1635,1636,1637,1638,1639,1640,1641,1642,1643,1644,1645,1646,1647,1648
1649,1650,1651,1652,1653,1654,1655,1656,1849,1850,1851,1852,1853,1854,1855,1856
1857,1858,1859,1860,1861,1862,1863,1864,1865,1866,1867,1868,1869,1870,1871,1872
1873,1874,1875,1876,1877,1878,1879,1880,1881,1882,1883,1884,1885,1886,1887,1888
1889,1890,1891,1892,1893,1894,1895,1896,1897,1898,1899,1900,1901,1902,1903,1904
1905,1906,1907,1908,1909,1910,1911,1912,1913,1914,1915,1916,1917,1918,1919,1920
1921,1922,1923,1924,1925,1926,1927,1928,1929,1930,1931,1932,1933,1934,1935,1936
1937,1938,1939,1940,1941,1942,1943,1944,1945,1946,1947,1948,1949,1950,1951,1952
1953,1954,1955,1956,1957,1958,1959,1960,1961,1962,1963,1964,1965,1966,1967,1968
1969,1970,1971,1972,1973,1974,1975,1976,1977,1978,1979,1980,1981,1982,1983,1984
1985,1986,1987,1988,1989,1990,1991,1992,1993,1994,1995,1996,1997,1998,1999,2000
2001,2002,2003,2004,2005,2006,2007,2008,2009,2010,2011,2012,2013,2014,2015,2016
2017,2018,2019,2020,2021,2022,2023,2024,2025,2026,2027,2028,2029,2030,2031,2032
2033,2034,2035,2036,2037,2038,2039,2040,2041,2042,2043,2044,2045,2046,2047,2048
2049,2050,2051,2052,2053,2054,2055,2056,2057,2058,2059,2060,2061,2062,2063,2064
2065,2066,2067,2068,2069,2070,2071,2072,2073,2074,2075,2076,2077,2078,2079,2080
2081,2082,2083,2084,2085,2086,2087,2088,2089,2090,2091,2092,2093,2094,2095,2096
** ... 19 like lines cut
*Nset, nset=beam-2_beam_col_interf
1663,1664,1667,1668,1670,1672,1692,1693,1702,1703,1712,1713,1731,1732,1733,1734
1735,1736,1737,1738,1739,1740,1741,1742,1743,1744,1745,1746,1747,1753,1754
*Elset, elset=beam-2_beam_col_interf
1558,1559,1560,1570,1571,1572,1582,1583,1584,1639,1640,1641,1642,1643,1644,1645
1646,1647,1648,1649,1650,1651,1652,1653,1654,1655,1656,1666,1667,1668
*Nset, nset=beam-2_beam_couple_interf
1674,1676,1678,1680,1683,1686,1784,1785,1842,1843,1871,1872,1873,1874,1875,1876
1877,1878,1879,1880,1881,1882,1883,1884,1885,1886,1887,1915,1916,1944,1945
*Elset, elset=beam-2_beam_couple_interf
 1756, 1757, 1758, 1846, 1847, 1848, 2371, 2372, 2373, 2374, 2375, 2376, 2377, 2378, 2379, 2380
 2381, 2382, 2383, 2384, 2385, 2386, 2387, 2388, 2476, 2477, 2478, 2566, 2567, 2568
*Nset, nset=beam-2_all_nodes, generate
 1661,  2745,     1
*Elset, elset=beam-2_all_nodes, generate
 1549,  2568,     1
** Section: beam_flange
*Shell Section, elset=beam-2_Set-1, material=steel_sac-avg
23.9, 5
** Section: beam_web
*Shell Section, elset=beam-2_Set-2, material=steel_sac-avg
15.9, 5
** ----------------------------------------------------------------
** 
** PART INSTANCE: beam-beam_dom-1
** 
*System
          0.,      1146.3,       1854., 3.74939945665464e-33,      1147.3,       1854.
 -6.12323399573677e-17,      1146.3,       1855.
*Node
   2746,           0.,           0.,           0.
   2747,   2664.11401,           0.,           0.
   2748,        3012.,           0.,           0.
   2749,   532.822815,           0.,           0.
   2750,   1065.64563,           0.,           0.
   2751,   1598.46838,           0.,           0.
   2752,   2131.29126,           0.,           0.
*Element, type=B31OS
2569, 2746, 2749
2570, 2749, 2750
2571, 2750, 2751
2572, 2751, 2752
2573, 2752, 2747
*Element, type=B31
2574, 2747, 2748
*Nset, nset=beam-beam_dom-1_Set-1, generate
2746, 2752,  1
*Elset, elset=beam-beam_dom-1_Set-1, generate
2569, 2574,  1
*Nset, nset=beam-beam_dom-1_Set-2, generate
2746, 2752,  1
*Elset, elset=beam-beam_dom-1_Set-2, generate
2569, 2574,  1
*Nset, nset=beam-beam_dom-1_roller_nodes
2747,
*Nset, nset=beam-beam_dom-1_beam_end_node
2748,
*Nset, nset=beam-beam_dom-1_interf_node
2746,
*Nset, nset=beam-beam_dom-1_all_nodes, generate
2746, 2752,  1
*Elset, elset=beam-beam_dom-1_all_nodes, generate
2569, 2574,  1
** Section: beam_dom_section  Profile: w36x150
*Beam Section, elset=beam-beam_dom-1_Set-1, material=elastic, temperature=GRADIENTS, section=I
456., 912., 305., 305., 23.9, 23.9, 15.9
-1.,0.,-6.12323e-17
** ----------------------------------------------------------------
** 
** PART INSTANCE: beam-beam_dom-2
** 
*System
          0.,     -1146.3,       1854., 3.74939945665464e-33,     -1147.3,       1854.
 6.12323399573677e-17,     -1146.3,       1853.
*Node
   2753,           0.,           0.,           0.
   2754,   2664.11401,           0.,           0.
   2755,        3012.,           0.,           0.
   2756,   532.822815,           0.,           0.
   2757,   1065.64563,           0.,           0.
   2758,   1598.46838,           0.,           0.
   2759,   2131.29126,           0.,           0.
*Element, type=B31OS
2575, 2753, 2756
2576, 2756, 2757
2577, 2757, 2758
2578, 2758, 2759
2579, 2759, 2754
*Element, type=B31
2580, 2754, 2755
*Nset, nset=beam-beam_dom-2_Set-1, generate
2753, 2759,  1
*Elset, elset=beam-beam_dom-2_Set-1, generate
2575, 2580,  1
*Nset, nset=beam-beam_dom-2_Set-2, generate
2753, 2759,  1
*Elset, elset=beam-beam_dom-2_Set-2, generate
2575, 2580,  1
*Nset, nset=beam-beam_dom-2_roller_nodes
2754,
*Nset, nset=beam-beam_dom-2_beam_end_node
2755,
*Nset, nset=beam-beam_dom-2_interf_node
2753,
*Nset, nset=beam-beam_dom-2_all_nodes, generate
2753, 2759,  1
*Elset, elset=beam-beam_dom-2_all_nodes, generate
2575, 2580,  1
** Section: beam_dom_section  Profile: w36x150
*Beam Section, elset=beam-beam_dom-2_Set-1, material=elastic, temperature=GRADIENTS, section=I
456., 912., 305., 305., 23.9, 23.9, 15.9
-1.,0.,-6.12323e-17
** ----------------------------------------------------------------
** 
** PART INSTANCE: column-beam_dom-1
** 
*System
          0.,          0.,          0., 6.12323399573677e-17,          0.,          1.
          0.,          1.,          0.
*Node
   2760,           0.,           0.,           0.
   2761,         326.,           0.,           0.
   2762,         652.,           0.,           0.
   2763,         978.,           0.,           0.
   2764,        1304.,           0.,           0.
*Element, type=B31OS
2581, 2760, 2761
2582, 2761, 2762
2583, 2762, 2763
2584, 2763, 2764
*Nset, nset=column-beam_dom-1_Set-1, generate
2760, 2764,  1
*Elset, elset=column-beam_dom-1_Set-1, generate
2581, 2584,  1
*Nset, nset=column-beam_dom-1_Set-2, generate
2760, 2764,  1
*Elset, elset=column-beam_dom-1_Set-2, generate
2581, 2584,  1
*Nset, nset=column-beam_dom-1_top_node
2764,
*Nset, nset=column-beam_dom-1_bot_node
2760,
*Nset, nset=column-beam_dom-1_all_nodes, generate
2760, 2764,  1
*Elset, elset=column-beam_dom-1_all_nodes, generate
2581, 2584,  1
** Section: column_dom_section  Profile: w14x398
*Beam Section, elset=column-beam_dom-1_Set-1, material=elastic, temperature=GRADIENTS, section=I
232.5, 465., 422., 422., 72.4, 72.4, 45.
1.,0.,-6.12323e-17
** ----------------------------------------------------------------
** 
** PART INSTANCE: column-beam_dom-3
** 
*System
          0.,          0.,       2404., 6.12323399573677e-17,          0.,       2405.
          0.,          1.,       2404.
*Node
   2765,           0.,           0.,           0.
   2766,         326.,           0.,           0.
   2767,         652.,           0.,           0.
   2768,         978.,           0.,           0.
   2769,        1304.,           0.,           0.
*Element, type=B31OS
2585, 2765, 2766
2586, 2766, 2767
2587, 2767, 2768
2588, 2768, 2769
*Nset, nset=column-beam_dom-3_Set-1, generate
2765, 2769,  1
*Elset, elset=column-beam_dom-3_Set-1, generate
2585, 2588,  1
*Nset, nset=column-beam_dom-3_Set-2, generate
2765, 2769,  1
*Elset, elset=column-beam_dom-3_Set-2, generate
2585, 2588,  1
*Nset, nset=column-beam_dom-3_top_node
2769,
*Nset, nset=column-beam_dom-3_bot_node
2765,
*Nset, nset=column-beam_dom-3_all_nodes, generate
2765, 2769,  1
*Elset, elset=column-beam_dom-3_all_nodes, generate
2585, 2588,  1
** Section: column_dom_section  Profile: w14x398
*Beam Section, elset=column-beam_dom-3_Set-1, material=elastic, temperature=GRADIENTS, section=I
232.5, 465., 422., 422., 72.4, 72.4, 45.
1.,0.,-6.12323e-17
*System
*Node
   2770,  7.98469702e-14,           0.,        3709.
*Element, type=CONN3D2
2589, 2769, 2770
*Connector Section, elset=Wire-1-Set-1, behavior=ConnSect-1
Hinge,
"Datum csys-2",
*Nset, nset=Wire-1-Set-1
2770,
*Nset, nset=Wire-1-Set-1
2769,
*Elset, elset=Wire-1-Set-1
 2589,
*Nset, nset=beam_corner_nodes
591,595,598,601
*Nset, nset=beam_corner_nodes
1676,1680,1683,1686
*Nset, nset=col_bot
2760,
*Nset, nset=col_top
2769,
*Nset, nset=hinge_node
2770,
*Nset, nset=s_Set-5
578,579,582,583,585,587,607,608,617,618,627,628,646,647,648,649
650,651,652,653,654,655,656,657,658,659,660,661,662,668,669
*Elset, elset=s_Set-5
 538, 539, 540, 550, 551, 552, 562, 563, 564, 619, 620, 621, 622, 623, 624, 625
 626, 627, 628, 629, 630, 631, 632, 633, 634, 635, 636, 646, 647, 648
*Nset, nset=t_Set-3
   1,   4,   5,   7,   9,  12,  58,  59,  60,  61,  62,  63,  88,  89,  90,  91
  92,  93,  94, 123, 124, 125, 174, 175, 176
*Elset, elset=t_Set-3
   1,  23,  45,  67, 110, 132, 154, 176, 177, 178, 179, 180, 181, 182, 183, 184
 374, 396, 418, 440, 441, 463, 485, 507
*Nset, nset=t_Set-4
   2,   3,   6,   8,  10,  11,  34,  35,  36,  85,  86,  87,  95,  96,  97,  98
  99, 100, 101, 147, 148, 149, 150, 151, 152
*Elset, elset=t_Set-4
  22,  44,  66,  88,  89, 111, 133, 155, 345, 346, 347, 348, 349, 350, 351, 352
 353, 375, 397, 419, 462, 484, 506, 528
*Elset, elset=_m_Surf-1_SPOS, generate
   1,  176,    1
*Surface, type=ELEMENT, name=m_Surf-1
_m_Surf-1_SPOS, SPOS
*Elset, elset=_m_Surf-2_SNEG, generate
 353,  528,    1
*Surface, type=ELEMENT, name=m_Surf-2
_m_Surf-2_SNEG, SNEG
*Surface, type=NODE, name=beam-1_beam_col_interf_CNS_
beam-1_beam_col_interf, 1.
*Surface, type=NODE, name=beam-2_beam_col_interf_CNS_
beam-2_beam_col_interf, 1.
*Surface, type=NODE, name=beam-2_beam_couple_interf_CNS_
beam-2_beam_couple_interf, 1.
*Surface, type=NODE, name=beam-1_beam_couple_interf_CNS_
beam-1_beam_couple_interf, 1.
*Surface, type=NODE, name=column-1_bot_interf_CNS_
column-1_bot_interf, 1.
*Surface, type=NODE, name=column-1_top_interf_CNS_
column-1_top_interf, 1.
*Orientation, name="Datum csys-2"
          0.,           0.,           1.,           0.,           1.,           0.
1, 0.
** Constraint: Constraint-3
*Tie, name=Constraint-3, adjust=yes
beam-1_beam_col_interf_CNS_, m_Surf-1
** Constraint: Constraint-3-Copy
*Tie, name=Constraint-3-Copy, adjust=yes
beam-2_beam_col_interf_CNS_, m_Surf-2
** Constraint: beam_couple-1
*Coupling, constraint name=beam_couple-1, ref node=beam-beam_dom-1_interf_node, surface=beam-2_beam_couple_interf_CNS_
*Kinematic
1, 1
2, 2
3, 3
** Constraint: beam_couple-2
*Coupling, constraint name=beam_couple-2, ref node=beam-beam_dom-2_interf_node, surface=beam-1_beam_couple_interf_CNS_
*Kinematic
1, 1
2, 2
3, 3
** Constraint: col_couple-1
*Coupling, constraint name=col_couple-1, ref node=column-beam_dom-1_top_node, surface=column-1_bot_interf_CNS_
*Kinematic
1, 1
2, 2
3, 3
** Constraint: col_couple-2
*Coupling, constraint name=col_couple-2, ref node=column-beam_dom-3_bot_node, surface=column-1_top_interf_CNS_
*Kinematic
1, 1
2, 2
3, 3
*Connector Behavior, name=ConnSect-1
*Connector Elasticity, component=4
 1e+10,
*Amplitude, name=lateral_amp, definition=EQUALLY SPACED, fixed interval=1.
             0.,     0.002784348,       5.1271551,     0.150808944,      7.68108827,     12.75919762,     0.442028961,    -6.931781793
   -12.94652249,    -0.410360876,     8.742618913,     12.89386931,     0.094385003,     -6.76835197,    -12.69018989,    -1.092262865
   -1.092413614,     5.281159999,     12.75746801,      0.09116187,    -7.121188958,    -12.33929041,    -0.763583182,     8.224215073
    12.71614234,     0.337136359,     -7.12456919,    -12.69275008,    -1.162503771,     7.019675699,     12.58506183,     0.324143624
   -7.782298888,    -12.34323351,    -1.061486574,      7.28393641,     12.76386538,     0.324291706,     -6.06142425,    -12.39677048
   -0.783291042,    -0.779795494,     7.168502935,      17.3195568,     0.524111982,    -7.568481815,    -17.18614711,    -1.057740201
    8.999902244,     17.21452171,     0.482017578,    -8.100013772,    -17.19314799,    -1.107414219,     9.109984574,     17.18570756
    0.339980905,    -7.514522182,    -16.71729194,    -1.019413125,     8.398640302,     17.09194753,     0.206426181,    -7.307193539
   -16.68170387,    -0.834678798,      7.86626316,     17.44676051,     0.081023587,    -7.979332022,     -16.6718041,    -1.269764161
    8.439383553,     17.21481596,     0.102936421,    -7.398555561,     -16.6744984,    -0.977257126,    -0.977200611,     19.19331379
    25.88343236,     0.310119776,    -13.94225939,    -25.88564076,     -0.42879772,     13.35930818,     26.30146442,     0.358496235
   -13.04560027,     -25.7129741,    -0.782263485,     13.05921417,     26.11881619,     0.435996715,    -13.39995123,    -25.27800215
   -0.690296308,     13.19368342,     26.56044713,     0.405544274,    -12.69198871,    -25.42259228,    -0.992418767,     13.18792244
    26.34826633,    -0.054919118,    -12.96877924,    -25.10218475,    -1.039916767,     12.83031026,     26.17242314,     0.493659033
   -12.77248169,    -25.24140723,    -0.856400497,    -0.856668213,     17.02872172,     32.37350002,     35.55344464,     4.111648622
   -16.86447313,    -27.46744456,    -34.34711787,    -6.608725162,     12.90924596,     31.87173014,     35.62504267,     24.03362973
    6.368958941,    -16.77976032,    -27.06165162,    -34.61752487,    -24.87088142,    -11.41609972,    -6.258612324,     15.36484265
    29.38271365,     35.79868583,     22.57613506,     11.30652539,     5.830961922,    -10.80344601,    -22.62172717,    -34.65968862
   -24.39535532,    -14.86308623,    -6.632564078,     8.562793644,     22.38314002,     35.61271834,     26.06198013,     15.10656948
     6.17522133,    -10.66462574,      -20.777287,    -34.67158788,    -26.79463323,    -16.84422869,    -6.336707418,    -6.336105184
** ... 38 like lines cut
** 
** MATERIALS
** 
*Material, name=elastic
*Elastic
200000., 0.3
*Material, name=steel_flange
*Elastic
200000., 0.3
*Plastic, hardening=COMBINED, datatype=PARAMETERS, number backstresses=2
 318.47,  11608.,  145.22, 1026.33,    4.68
*Cyclic Hardening, parameters
 318.47, 100.72,     8.
*Material, name=steel_sac-avg
*Elastic
207300., 0.3
*Plastic, hardening=COMBINED, datatype=PARAMETERS, number backstresses=1
352., 2305.55,  20.153
*Cyclic Hardening, parameters
352., 61.6014, 8.95688
*Material, name=steel_sac-avg-lowfy
*Elastic
207300., 0.3
*Plastic, hardening=COMBINED, datatype=PARAMETERS, number backstresses=1
320., 2305.55,  20.153
*Cyclic Hardening, parameters
320., 61.6014, 8.95688
*Material, name=steel_web
*Elastic
200000., 0.3
*Plastic, hardening=COMBINED, datatype=PARAMETERS, number backstresses=2
 339.18, 8716.08,  118.47, 1182.05,    5.22
*Cyclic Hardening, parameters
 339.18, 77.52,  9.29
** 
** BOUNDARY CONDITIONS
** 
** Name: beam_lateral_hold1 Type: Displacement/Rotation
*Boundary
beam-beam_dom-1_beam_end_node, 1, 1
** Name: beam_lateral_hold2 Type: Displacement/Rotation
*Boundary
beam-beam_dom-2_beam_end_node, 1, 1
** Name: bot_fix Type: Displacement/Rotation
*Boundary
column-beam_dom-1_bot_node, 1, 1
column-beam_dom-1_bot_node, 2, 2
column-beam_dom-1_bot_node, 3, 3
** Name: roller_support1 Type: Displacement/Rotation
*Boundary
beam-beam_dom-1_roller_nodes, 3, 3
** Name: roller_support2 Type: Displacement/Rotation
*Boundary
beam-beam_dom-2_roller_nodes, 3, 3
** Name: top_fix Type: Displacement/Rotation
*Boundary
hinge_node, 1, 1
hinge_node, 6, 6
** ----------------------------------------------------------------
** 
** STEP: cyclic_loading
** 
*Step, name=cyclic_loading, nlgeom=YES, inc=1000000000
*Static
1., 463., 1e-10, 1.
** 
** BOUNDARY CONDITIONS
** 
** Name: top_disp_control Type: Displacement/Rotation
*Boundary, amplitude=lateral_amp
hinge_node, 2, 2, 1.
** 
** OUTPUT REQUESTS
** 
*Restart, write, frequency=0
** 
** FIELD OUTPUT: F-Output-1
** 
*Output, field, variable=PRESELECT, time interval=1.
** 
** HISTORY OUTPUT: H-Output-1
** 
*Output, history, variable=PRESELECT
*End Step
