*Heading
** Job name: Job-1 Model name: Model-1
** Generated by: Abaqus/CAE 6.14-1
*Preprint, echo=NO, model=NO, history=NO, contact=NO
** ----------------------------------------------------------------
** 
** PART INSTANCE: Part-1-1
** 
*System
          0.,          0.,       1000., 6.12323399573677e-17,          0.,       1001.
          0.,          1.,       1000.
*Node
      1,           0.,           0.,           0.
      2,         250.,           0.,           0.
      3,         500.,           0.,           0.
      4,         750.,           0.,           0.
      5,        1000.,           0.,           0.
*Element, type=B31OS
1, 1, 2
2, 2, 3
3, 3, 4
4, 4, 5
*Nset, nset=Part-1-1_Set-3, generate
 1,  5,  1
*Elset, elset=Part-1-1_Set-3, generate
 1,  4,  1
*Nset, nset=Part-1-1_Set-4, generate
 1,  5,  1
*Elset, elset=Part-1-1_Set-4, generate
 1,  4,  1
*Nset, nset=Part-1-1_beam_node
 1,
** Section: Section-1  Profile: Profile-1
*Beam Section, elset=Part-1-1_Set-3, material=Material-1, temperature=GRADIENTS, section=I
55., 110., 100., 100., 10., 10., 10.
1.,0.,-6.12323e-17
** ----------------------------------------------------------------
** 
** PART INSTANCE: Part-2-1
** 
*System
*Node
      6,           0.,         -50.,        1000.
      7,           0.,         -50.,           0.
      8,          50.,         -50.,           0.
      9,          50.,         -50.,        1000.
     10,         -50.,         -50.,        1000.
     11,         -50.,         -50.,           0.
     12,           0.,          50.,        1000.
     13,           0.,          50.,           0.
     14,         -50.,          50.,        1000.
     15,         -50.,          50.,           0.
     16,          50.,          50.,           0.
     17,          50.,          50.,        1000.
     18,           0.,         -50.,         975.
     19,           0.,         -50.,         950.
     20,           0.,         -50.,         925.
     21,           0.,         -50.,         900.
     22,           0.,         -50.,         875.
     23,           0.,         -50.,         850.
     24,           0.,         -50.,         825.
     25,           0.,         -50.,         800.
** ... 513 like lines cut
*Element, type=S4R
 5,   6,  18, 266,  97
 6,  18,  19, 267, 266
 7,  19,  20, 268, 267
 8,  20,  21, 269, 268
 9,  21,  22, 270, 269
10,  22,  23, 271, 270
11,  23,  24, 272, 271
12,  24,  25, 273, 272
13,  25,  26, 274, 273
14,  26,  27, 275, 274
15,  27,  28, 276, 275
16,  28,  29, 277, 276
17,  29,  30, 278, 277
18,  30,  31, 279, 278
19,  31,  32, 280, 279
20,  32,  33, 281, 280
21,  33,  34, 282, 281
22,  34,  35, 283, 282
23,  35,  36, 284, 283
24,  36,  37, 285, 284
** ... 460 like lines cut
*Nset, nset=Part-2-1_Set-14, generate
   6,  538,    1
*Elset, elset=Part-2-1_Set-14, generate
   5,  484,    1
*Nset, nset=Part-2-1_s1
10,
*Nset, nset=Part-2-1_s2
 98,
*Nset, nset=Part-2-1_s3
 6,
*Nset, nset=Part-2-1_s4
 97,
*Nset, nset=Part-2-1_s5
 9,
*Nset, nset=Part-2-1_s6
 141,
*Nset, nset=Part-2-1_s7
 140,
*Nset, nset=Part-2-1_s8
 139,
*Nset, nset=Part-2-1_s9
14,
*Nset, nset=Part-2-1_s10
 184,
*Nset, nset=Part-2-1_s11
12,
*Nset, nset=Part-2-1_s12
 265,
*Nset, nset=Part-2-1_s13
 17,
*Nset, nset=Part-2-1_interf_nodes_1
   6,   9,  10,  12,  14,  17,  97,  98, 139, 140, 141, 184, 265
** Section: Section-2
*Shell Section, elset=Part-2-1_Set-14, material=Material-1
10., 5
*System
*Node
    539,           0.,           0.,           0.
*Nset, nset=Set-1
 5,
*Nset, nset=Set-4
539,
*Nset, nset=Set-5
 5,
*Nset, nset=Set-6
 5,
*Nset, nset=Set-7
 5,
*Nset, nset=Set-8
 5,
*Nset, nset=t_Set-2
   7,   8,  11,  13,  15,  16,  57, 138, 142, 143, 144, 224, 225
*Elset, elset=t_Set-2
  44,  84,  85, 125, 321, 322, 323, 324, 325, 365, 444, 484
*Nset, nset=_PickedSet9
539,
** Constraint: Constraint-1
*Rigid Body, ref node=_PickedSet9, tie nset=t_Set-2
** Constraint: eq1-1
*Equation
3
Part-2-1_s1, 1, 1.
Part-1-1_beam_node, 1, -1.
Part-1-1_beam_node, 6, -50.
** Constraint: eq1-2
*Equation
3
Part-2-1_s1, 2, 1.
Part-1-1_beam_node, 2, -1.
Part-1-1_beam_node, 6, 50.
** Constraint: eq1-3
*Equation
5
Part-2-1_s1, 3, 1.
Part-1-1_beam_node, 3, -1.
Part-1-1_beam_node, 4, 50.
Part-1-1_beam_node, 5, -50.
Part-1-1_beam_node, 7, -2500.
** Constraint: eq2-1
*Equation
3
Part-2-1_s2, 1, 1.
Part-1-1_beam_node, 1, -1.
Part-1-1_beam_node, 6, -50.
** Constraint: eq2-2
*Equation
3
Part-2-1_s2, 2, 1.
Part-1-1_beam_node, 2, -1.
Part-1-1_beam_node, 6, 25.
** Constraint: eq2-3
*Equation
5
Part-2-1_s2, 3, 1.
Part-1-1_beam_node, 3, -1.
Part-1-1_beam_node, 4, 50.
Part-1-1_beam_node, 5, -25.
Part-1-1_beam_node, 7, -1250.
** Constraint: eq3-1
*Equation
3
Part-2-1_s3, 1, 1.
Part-1-1_beam_node, 1, -1.
Part-1-1_beam_node, 6, -50.
** Constraint: eq3-2
*Equation
3
Part-2-1_s3, 2, 1.
Part-1-1_beam_node, 2, -1.
Part-1-1_beam_node, 6, 0.
** Constraint: eq3-3
*Equation
5
Part-2-1_s3, 3, 1.
Part-1-1_beam_node, 3, -1.
Part-1-1_beam_node, 4, 50.
Part-1-1_beam_node, 5, 0.
Part-1-1_beam_node, 7, 0.
** Constraint: eq4-1
*Equation
3
Part-2-1_s4, 1, 1.
Part-1-1_beam_node, 1, -1.
Part-1-1_beam_node, 6, -50.
** Constraint: eq4-2
*Equation
3
Part-2-1_s4, 2, 1.
Part-1-1_beam_node, 2, -1.
Part-1-1_beam_node, 6, -25.
** Constraint: eq4-3
*Equation
5
Part-2-1_s4, 3, 1.
Part-1-1_beam_node, 3, -1.
Part-1-1_beam_node, 4, 50.
Part-1-1_beam_node, 5, 25.
Part-1-1_beam_node, 7, 1250.
** Constraint: eq5-1
*Equation
3
Part-2-1_s5, 1, 1.
Part-1-1_beam_node, 1, -1.
Part-1-1_beam_node, 6, -50.
** Constraint: eq5-2
*Equation
3
Part-2-1_s5, 2, 1.
Part-1-1_beam_node, 2, -1.
Part-1-1_beam_node, 6, -50.
** Constraint: eq5-3
*Equation
5
Part-2-1_s5, 3, 1.
Part-1-1_beam_node, 3, -1.
Part-1-1_beam_node, 4, 50.
Part-1-1_beam_node, 5, 50.
Part-1-1_beam_node, 7, 2500.
** Constraint: eq6-1
*Equation
3
Part-2-1_s6, 1, 1.
Part-1-1_beam_node, 1, -1.
Part-1-1_beam_node, 6, -25.
** Constraint: eq6-2
*Equation
3
Part-2-1_s6, 2, 1.
Part-1-1_beam_node, 2, -1.
Part-1-1_beam_node, 6, 0.
** Constraint: eq6-3
*Equation
5
Part-2-1_s6, 3, 1.
Part-1-1_beam_node, 3, -1.
Part-1-1_beam_node, 4, 25.
Part-1-1_beam_node, 5, 0.
Part-1-1_beam_node, 7, 0.
** Constraint: eq7-1
*Equation
3
Part-2-1_s7, 1, 1.
Part-1-1_beam_node, 1, -1.
Part-1-1_beam_node, 6, 0.
** Constraint: eq7-2
*Equation
3
Part-2-1_s7, 2, 1.
Part-1-1_beam_node, 2, -1.
Part-1-1_beam_node, 6, 0.
** Constraint: eq7-3
*Equation
5
Part-2-1_s7, 3, 1.
Part-1-1_beam_node, 3, -1.
Part-1-1_beam_node, 4, 0.
Part-1-1_beam_node, 5, 0.
Part-1-1_beam_node, 7, 0.
** Constraint: eq8-1
*Equation
3
Part-2-1_s8, 1, 1.
Part-1-1_beam_node, 1, -1.
Part-1-1_beam_node, 6, 25.
** Constraint: eq8-2
*Equation
3
Part-2-1_s8, 2, 1.
Part-1-1_beam_node, 2, -1.
Part-1-1_beam_node, 6, 0.
** Constraint: eq8-3
*Equation
5
Part-2-1_s8, 3, 1.
Part-1-1_beam_node, 3, -1.
Part-1-1_beam_node, 4, -25.
Part-1-1_beam_node, 5, 0.
Part-1-1_beam_node, 7, 0.
** Constraint: eq9-1
*Equation
3
Part-2-1_s9, 1, 1.
Part-1-1_beam_node, 1, -1.
Part-1-1_beam_node, 6, 50.
** Constraint: eq9-2
*Equation
3
Part-2-1_s9, 2, 1.
Part-1-1_beam_node, 2, -1.
Part-1-1_beam_node, 6, 50.
** Constraint: eq9-3
*Equation
5
Part-2-1_s9, 3, 1.
Part-1-1_beam_node, 3, -1.
Part-1-1_beam_node, 4, -50.
Part-1-1_beam_node, 5, -50.
Part-1-1_beam_node, 7, 2500.
** Constraint: eq10-1
*Equation
3
Part-2-1_s10, 1, 1.
Part-1-1_beam_node, 1, -1.
Part-1-1_beam_node, 6, 50.
** Constraint: eq10-2
*Equation
3
Part-2-1_s10, 2, 1.
Part-1-1_beam_node, 2, -1.
Part-1-1_beam_node, 6, 25.
** Constraint: eq10-3
*Equation
5
Part-2-1_s10, 3, 1.
Part-1-1_beam_node, 3, -1.
Part-1-1_beam_node, 4, -50.
Part-1-1_beam_node, 5, -25.
Part-1-1_beam_node, 7, 1250.
** Constraint: eq11-1
*Equation
3
Part-2-1_s11, 1, 1.
Part-1-1_beam_node, 1, -1.
Part-1-1_beam_node, 6, 50.
** Constraint: eq11-2
*Equation
3
Part-2-1_s11, 2, 1.
Part-1-1_beam_node, 2, -1.
Part-1-1_beam_node, 6, 0.
** Constraint: eq11-3
*Equation
5
Part-2-1_s11, 3, 1.
Part-1-1_beam_node, 3, -1.
Part-1-1_beam_node, 4, -50.
Part-1-1_beam_node, 5, 0.
Part-1-1_beam_node, 7, 0.
** Constraint: eq12-1
*Equation
3
Part-2-1_s12, 1, 1.
Part-1-1_beam_node, 1, -1.
Part-1-1_beam_node, 6, 50.
** Constraint: eq12-2
*Equation
3
Part-2-1_s12, 2, 1.
Part-1-1_beam_node, 2, -1.
Part-1-1_beam_node, 6, -25.
** Constraint: eq12-3
*Equation
5
Part-2-1_s12, 3, 1.
Part-1-1_beam_node, 3, -1.
Part-1-1_beam_node, 4, -50.
Part-1-1_beam_node, 5, 25.
Part-1-1_beam_node, 7, -1250.
** Constraint: eq13-1
*Equation
3
Part-2-1_s13, 1, 1.
Part-1-1_beam_node, 1, -1.
Part-1-1_beam_node, 6, 50.
** Constraint: eq13-2
*Equation
3
Part-2-1_s13, 2, 1.
Part-1-1_beam_node, 2, -1.
Part-1-1_beam_node, 6, -50.
** Constraint: eq13-3
*Equation
5
Part-2-1_s13, 3, 1.
Part-1-1_beam_node, 3, -1.
Part-1-1_beam_node, 4, -50.
Part-1-1_beam_node, 5, 50.
Part-1-1_beam_node, 7, -2500.
** 
** MATERIALS
** 
*Material, name=Material-1
*Elastic
200000., 0.3
** 
** BOUNDARY CONDITIONS
** 
** Name: BC-1 Type: Displacement/Rotation
*Boundary
Set-4, 1, 1
Set-4, 2, 2
Set-4, 3, 3
Set-4, 4, 4
Set-4, 5, 5
Set-4, 6, 6
** ----------------------------------------------------------------
** 
** STEP: Step-1
** 
*Step, name=Step-1, nlgeom=NO, inc=1000
*Static
0.1, 1., 1e-05, 0.1
** 
** LOADS
** 
** Name: mz   Type: Moment
*Cload
Set-6, 6, 1e+06
** 
** OUTPUT REQUESTS
** 
*Restart, write, frequency=0
** 
** FIELD OUTPUT: F-Output-1
** 
*Output, field, variable=PRESELECT
** 
** HISTORY OUTPUT: H-Output-1
** 
*Output, history, variable=PRESELECT
*End Step
