*Heading
** Job name: WIKC-V2-other-orient Model name: WIKC-V2-other-orient
** Generated by: Abaqus/CAE 6.14-1
*Preprint, echo=NO, model=NO, history=NO, contact=NO
** ----------------------------------------------------------------
** 
** PART INSTANCE: Part-1-1
** 
*System
146.446609406726,        500.,853.553390593274,146.593056016133,       500.5,854.406943983867
146.946609406726,500.707106781186,853.053390593274
*Node
      1,           0.,           0.,           0.
      2,         250.,           0.,           0.
      3,         500.,           0.,           0.
      4,         750.,           0.,           0.
      5,        1000.,           0.,           0.
*Element, type=B31OS
1, 1, 2
2, 2, 3
3, 3, 4
4, 4, 5
*Nset, nset=Part-1-1_Set-3, generate
 1,  5,  1
*Elset, elset=Part-1-1_Set-3, generate
 1,  4,  1
*Nset, nset=Part-1-1_Set-4, generate
 1,  5,  1
*Elset, elset=Part-1-1_Set-4, generate
 1,  4,  1
*Nset, nset=Part-1-1_beam_node
 1,
** Section: Section-1  Profile: Profile-1
*Beam Section, elset=Part-1-1_Set-3, material=Material-1, temperature=GRADIENTS, section=I
55., 110., 100., 100., 10., 10., 10.
0.853553,-0.5,0.146447
** ----------------------------------------------------------------
** 
** PART INSTANCE: Part-2-1
** 
*System
          0.,          0.,          0.,0.853553390593274,        -0.5,0.146446609406726
         0.5,0.707106781186548,        -0.5
*Node
      6,           0.,         -50.,        1000.
      7,           0.,         -50.,           0.
      8,          50.,         -50.,           0.
      9,          50.,         -50.,        1000.
     10,         -50.,         -50.,        1000.
     11,         -50.,         -50.,           0.
     12,           0.,          50.,        1000.
     13,           0.,          50.,           0.
     14,         -50.,          50.,        1000.
     15,         -50.,          50.,           0.
     16,          50.,          50.,           0.
     17,          50.,          50.,        1000.
     18,           0.,         -50.,         990.
     19,           0.,         -50.,         980.
     20,           0.,         -50.,         970.
     21,           0.,         -50.,         960.
     22,           0.,         -50.,         950.
     23,           0.,         -50.,         940.
     24,           0.,         -50.,         930.
     25,           0.,         -50.,         920.
** ... 3111 like lines cut
*Element, type=S4R
  5,    6,   18,  662,  223
  6,   18,   19,  663,  662
  7,   19,   20,  664,  663
  8,   20,   21,  665,  664
  9,   21,   22,  666,  665
 10,   22,   23,  667,  666
 11,   23,   24,  668,  667
 12,   24,   25,  669,  668
 13,   25,   26,  670,  669
 14,   26,   27,  671,  670
 15,   27,   28,  672,  671
 16,   28,   29,  673,  672
 17,   29,   30,  674,  673
 18,   30,   31,  675,  674
 19,   31,   32,  676,  675
 20,   32,   33,  677,  676
 21,   33,   34,  678,  677
 22,   34,   35,  679,  678
 23,   35,   36,  680,  679
 24,   36,   37,  681,  680
** ... 2980 like lines cut
*Nset, nset=Part-2-1_Set-14, generate
    6,  3136,     1
*Elset, elset=Part-2-1_Set-14, generate
    5,  3004,     1
*Nset, nset=Part-2-1_interf_nodes_1
   6,   9,  10,  12,  14,  17, 220, 221, 222, 223, 224, 225, 226, 227, 331, 332
 333, 334, 335, 336, 337, 338, 339, 448, 449, 450, 451, 658, 659, 660, 661
*Elset, elset=Part-2-1_interf-elem
    5,  105,  205,  305,  405,  604,  704,  804,  904, 1004, 1005, 1006, 1007, 1008, 1009, 1010
 1011, 1012, 1013, 1014, 2104, 2204, 2304, 2404, 2504, 2505, 2605, 2705, 2805, 2905
** Section: Section-2
*Shell Section, elset=Part-2-1_Set-14, material=Material-1
10., 5
** ----------------------------------------------------------------
** 
** PART INSTANCE: full_beam-1
** 
*System
        500.,          0.,          0.,        501.,          0.,          0.
*Node
   3137,           0.,         -50.,        2000.
   3138,           0.,         -50.,           0.
   3139,          50.,         -50.,           0.
   3140,          50.,         -50.,        2000.
   3141,         -50.,         -50.,        2000.
   3142,         -50.,         -50.,           0.
   3143,           0.,          50.,        2000.
   3144,           0.,          50.,           0.
   3145,         -50.,          50.,        2000.
   3146,         -50.,          50.,           0.
   3147,          50.,          50.,           0.
   3148,          50.,          50.,        2000.
   3149,           0.,         -50.,        1990.
   3150,           0.,         -50.,        1980.
   3151,           0.,         -50.,        1970.
   3152,           0.,         -50.,        1960.
   3153,           0.,         -50.,        1950.
   3154,           0.,         -50.,        1940.
   3155,           0.,         -50.,        1930.
   3156,           0.,         -50.,        1920.
** ... 6211 like lines cut
*Element, type=S4R
3005, 3137, 3149, 4393, 3554
3006, 3149, 3150, 4394, 4393
3007, 3150, 3151, 4395, 4394
3008, 3151, 3152, 4396, 4395
3009, 3152, 3153, 4397, 4396
3010, 3153, 3154, 4398, 4397
3011, 3154, 3155, 4399, 4398
3012, 3155, 3156, 4400, 4399
3013, 3156, 3157, 4401, 4400
3014, 3157, 3158, 4402, 4401
3015, 3158, 3159, 4403, 4402
3016, 3159, 3160, 4404, 4403
3017, 3160, 3161, 4405, 4404
3018, 3161, 3162, 4406, 4405
3019, 3162, 3163, 4407, 4406
3020, 3163, 3164, 4408, 4407
3021, 3164, 3165, 4409, 4408
3022, 3165, 3166, 4410, 4409
3023, 3166, 3167, 4411, 4410
3024, 3167, 3168, 4412, 4411
** ... 5980 like lines cut
*Nset, nset=full_beam-1_Set-14, generate
 3137,  9367,     1
*Elset, elset=full_beam-1_Set-14, generate
 3005,  9004,     1
*Nset, nset=full_beam-1_FS-interf-nodes
 3248, 3451, 3658, 3879, 4082, 4289, 4492, 4691, 4890, 5089, 5288, 5487, 5686, 5885, 6876, 6877
 6878, 6879, 6880, 6881, 6882, 6883, 6884, 7875, 8074, 8273, 8472, 8671, 8870, 9069, 9268
*Elset, elset=full_beam-1_FS-interf-elem
 3105, 3305, 3505, 3705, 3905, 4104, 4304, 4504, 4704, 4904, 6005, 6006, 6007, 6008, 6009, 6010
 6011, 6012, 6013, 6014, 7104, 7304, 7504, 7704, 7904, 8105, 8305, 8505, 8705, 8905
** Section: Section-2
*Shell Section, elset=full_beam-1_Set-14, material=Material-1
10., 5
** ----------------------------------------------------------------
** 
** PART INSTANCE: Part-2-1-lin-2-1
** 
*System
       1000.,          0.,          0.,       1001.,          0.,          0.
*Node
   9368,           0.,         -50.,        1000.
   9369,           0.,         -50.,           0.
   9370,          50.,         -50.,           0.
   9371,          50.,         -50.,        1000.
   9372,         -50.,         -50.,        1000.
   9373,         -50.,         -50.,           0.
   9374,           0.,          50.,        1000.
   9375,           0.,          50.,           0.
   9376,         -50.,          50.,        1000.
   9377,         -50.,          50.,           0.
   9378,          50.,          50.,           0.
   9379,          50.,          50.,        1000.
   9380,           0.,         -50.,         990.
   9381,           0.,         -50.,         980.
   9382,           0.,         -50.,         970.
   9383,           0.,         -50.,         960.
   9384,           0.,         -50.,         950.
   9385,           0.,         -50.,         940.
   9386,           0.,         -50.,         930.
   9387,           0.,         -50.,         920.
** ... 3111 like lines cut
*Element, type=S4R
9005,  9368,  9380, 10024,  9585
9006,  9380,  9381, 10025, 10024
9007,  9381,  9382, 10026, 10025
9008,  9382,  9383, 10027, 10026
9009,  9383,  9384, 10028, 10027
9010,  9384,  9385, 10029, 10028
9011,  9385,  9386, 10030, 10029
9012,  9386,  9387, 10031, 10030
9013,  9387,  9388, 10032, 10031
9014,  9388,  9389, 10033, 10032
9015,  9389,  9390, 10034, 10033
9016,  9390,  9391, 10035, 10034
9017,  9391,  9392, 10036, 10035
9018,  9392,  9393, 10037, 10036
9019,  9393,  9394, 10038, 10037
9020,  9394,  9395, 10039, 10038
9021,  9395,  9396, 10040, 10039
9022,  9396,  9397, 10041, 10040
9023,  9397,  9398, 10042, 10041
9024,  9398,  9399, 10043, 10042
** ... 2980 like lines cut
*Nset, nset=Part-2-1-lin-2-1_Set-14, generate
 9368, 12498,     1
*Elset, elset=Part-2-1-lin-2-1_Set-14, generate
 9005, 12004,     1
*Nset, nset=Part-2-1-lin-2-1_interf_nodes_1
9368,9371,9372,9374,9376,9379,9582,9583,9584,9585,9586,9587,9588,9589,9693,9694
9695,9696,9697,9698,9699,9700,9701,9810,9811,9812,9813,10020,10021,10022,10023
*Elset, elset=Part-2-1-lin-2-1_interf-elem
 9005, 9105, 9205, 9305, 9405, 9604, 9704, 9804, 9904,10004,10005,10006,10007,10008,10009,10010
10011,10012,10013,10014,11104,11204,11304,11404,11504,11505,11605,11705,11805,11905
** Section: Section-2
*Shell Section, elset=Part-2-1-lin-2-1_Set-14, material=Material-1
10., 5
** ----------------------------------------------------------------
** 
** PART INSTANCE: Part-1-1-lin-2-1
** 
*System
       1000.,          0.,       1000.,       1000.,          0.,       1001.
       1000.,          1.,       1000.
*Node
  12499,           0.,           0.,           0.
  12500,         250.,           0.,           0.
  12501,         500.,           0.,           0.
  12502,         750.,           0.,           0.
  12503,        1000.,           0.,           0.
*Element, type=B31OS
12005, 12499, 12500
12006, 12500, 12501
12007, 12501, 12502
12008, 12502, 12503
*Nset, nset=Part-1-1-lin-2-1_Set-3, generate
12499, 12503,  1
*Elset, elset=Part-1-1-lin-2-1_Set-3, generate
12005, 12008,  1
*Nset, nset=Part-1-1-lin-2-1_Set-4, generate
12499, 12503,  1
*Elset, elset=Part-1-1-lin-2-1_Set-4, generate
12005, 12008,  1
*Nset, nset=Part-1-1-lin-2-1_beam_node
12499,
** Section: Section-1  Profile: Profile-1
*Beam Section, elset=Part-1-1-lin-2-1_Set-3, material=Material-1, temperature=GRADIENTS, section=I
55., 110., 100., 100., 10., 10., 10.
1.,0.,-6.12323e-17
** ----------------------------------------------------------------
** 
** PART INSTANCE: Part-1-1-lin-2-1-1
** 
*System
1646.44660940673,        500.,853.553390593274,1646.59305601613,       500.5,854.406943983867
1646.94660940673,500.707106781186,853.053390593274
*Node
  12504,           0.,           0.,           0.
  12505,         250.,           0.,           0.
  12506,         500.,           0.,           0.
  12507,         750.,           0.,           0.
  12508,        1000.,           0.,           0.
*Element, type=B31OS
12009, 12504, 12505
12010, 12505, 12506
12011, 12506, 12507
12012, 12507, 12508
*Nset, nset=Part-1-1-lin-2-1-1_Set-3, generate
12504, 12508,  1
*Elset, elset=Part-1-1-lin-2-1-1_Set-3, generate
12009, 12012,  1
*Nset, nset=Part-1-1-lin-2-1-1_Set-4, generate
12504, 12508,  1
*Elset, elset=Part-1-1-lin-2-1-1_Set-4, generate
12009, 12012,  1
*Nset, nset=Part-1-1-lin-2-1-1_beam_node
12504,
** Section: Section-1  Profile: Profile-1
*Beam Section, elset=Part-1-1-lin-2-1-1_Set-3, material=Material-1, temperature=GRADIENTS, section=I
55., 110., 100., 100., 10., 10., 10.
0.853553,-0.5,0.146447
** ----------------------------------------------------------------
** 
** PART INSTANCE: Part-2-1-lin-2-1-1
** 
*System
       1500.,          0.,          0.,1500.85355339059,        -0.5,0.146446609406726
      1500.5,0.707106781186548,        -0.5
*Node
  12509,           0.,         -50.,        1000.
  12510,           0.,         -50.,           0.
  12511,          50.,         -50.,           0.
  12512,          50.,         -50.,        1000.
  12513,         -50.,         -50.,        1000.
  12514,         -50.,         -50.,           0.
  12515,           0.,          50.,        1000.
  12516,           0.,          50.,           0.
  12517,         -50.,          50.,        1000.
  12518,         -50.,          50.,           0.
  12519,          50.,          50.,           0.
  12520,          50.,          50.,        1000.
  12521,           0.,         -50.,         990.
  12522,           0.,         -50.,         980.
  12523,           0.,         -50.,         970.
  12524,           0.,         -50.,         960.
  12525,           0.,         -50.,         950.
  12526,           0.,         -50.,         940.
  12527,           0.,         -50.,         930.
  12528,           0.,         -50.,         920.
** ... 3111 like lines cut
*Element, type=S4R
12013, 12509, 12521, 13165, 12726
12014, 12521, 12522, 13166, 13165
12015, 12522, 12523, 13167, 13166
12016, 12523, 12524, 13168, 13167
12017, 12524, 12525, 13169, 13168
12018, 12525, 12526, 13170, 13169
12019, 12526, 12527, 13171, 13170
12020, 12527, 12528, 13172, 13171
12021, 12528, 12529, 13173, 13172
12022, 12529, 12530, 13174, 13173
12023, 12530, 12531, 13175, 13174
12024, 12531, 12532, 13176, 13175
12025, 12532, 12533, 13177, 13176
12026, 12533, 12534, 13178, 13177
12027, 12534, 12535, 13179, 13178
12028, 12535, 12536, 13180, 13179
12029, 12536, 12537, 13181, 13180
12030, 12537, 12538, 13182, 13181
12031, 12538, 12539, 13183, 13182
12032, 12539, 12540, 13184, 13183
** ... 2980 like lines cut
*Nset, nset=Part-2-1-lin-2-1-1_Set-14, generate
12509, 15639,     1
*Elset, elset=Part-2-1-lin-2-1-1_Set-14, generate
12013, 15012,     1
*Nset, nset=Part-2-1-lin-2-1-1_interf_nodes_1
12509,12512,12513,12515,12517,12520,12723,12724,12725,12726,12727,12728,12729,12730,12834,12835
12836,12837,12838,12839,12840,12841,12842,12951,12952,12953,12954,13161,13162,13163,13164
*Elset, elset=Part-2-1-lin-2-1-1_interf-elem
12013,12113,12213,12313,12413,12612,12712,12812,12912,13012,13013,13014,13015,13016,13017,13018
13019,13020,13021,13022,14112,14212,14312,14412,14512,14513,14613,14713,14813,14913
** Section: Section-2
*Shell Section, elset=Part-2-1-lin-2-1-1_Set-14, material=Material-1
10., 5
*System
*Node
  15640,           0.,           0.,           0.
*Node
  15641,         500.,           0.,           0.
*Node
  15642,         500.,           0.,        2000.
*Node
  15643,        1000.,           0.,           0.
*Node
  15644,        1500.,           0.,           0.
*Nset, nset=Set-1
 5,
*Nset, nset=Set-4
15640,
*Nset, nset=Set-5
 5,
*Nset, nset=Set-6
 5,
*Nset, nset=Set-7
 5,
*Nset, nset=Set-8
 5,
*Nset, nset=Set-14
15640,15641,15643,15644
*Nset, nset=load_nodes
 5,
*Nset, nset=load_nodes
15642,
*Nset, nset=load_nodes
12503,
*Nset, nset=load_nodes
12508,
*Nset, nset=m_Set-17
12499,
*Nset, nset=s_Set-17
9368,9371,9372,9374,9376,9379,9582,9583,9584,9585,9586,9587,9588,9589,9693,9694
9695,9696,9697,9698,9699,9700,9701,9810,9811,9812,9813,10020,10021,10022,10023
*Elset, elset=s_Set-17
 9005, 9105, 9205, 9305, 9405, 9604, 9704, 9804, 9904,10004,10005,10006,10007,10008,10009,10010
10011,10012,10013,10014,11104,11204,11304,11404,11504,11505,11605,11705,11805,11905
*Nset, nset=t_Set-2
   7,   8,  11,  13,  15,  16, 117, 118, 119, 120, 327, 328, 329, 330, 340, 341
 342, 343, 344, 345, 346, 347, 348, 551, 552, 553, 554, 555, 556, 557, 558
*Elset, elset=t_Set-2
  104,  204,  304,  404,  504,  505,  605,  705,  805,  905, 1995, 1996, 1997, 1998, 1999, 2000
 2001, 2002, 2003, 2004, 2005, 2105, 2205, 2305, 2405, 2604, 2704, 2804, 2904, 3004
*Nset, nset=t_Set-9
 3138, 3139, 3142, 3144, 3146, 3147, 3348, 3349, 3350, 3351, 3758, 3759, 3760, 3761, 3771, 3772
 3773, 3774, 3775, 3776, 3777, 3778, 3779, 4182, 4183, 4184, 4185, 4186, 4187, 4188, 4189
*Elset, elset=t_Set-9
 3204, 3404, 3604, 3804, 4004, 4005, 4205, 4405, 4605, 4805, 6995, 6996, 6997, 6998, 6999, 7000
 7001, 7002, 7003, 7004, 7005, 7205, 7405, 7605, 7805, 8204, 8404, 8604, 8804, 9004
*Nset, nset=t_Set-11
 3137, 3140, 3141, 3143, 3145, 3148, 3551, 3552, 3553, 3554, 3555, 3556, 3557, 3558, 3762, 3763
 3764, 3765, 3766, 3767, 3768, 3769, 3770, 3979, 3980, 3981, 3982, 4389, 4390, 4391, 4392
*Elset, elset=t_Set-11
 3005, 3205, 3405, 3605, 3805, 4204, 4404, 4604, 4804, 5004, 5005, 5006, 5007, 5008, 5009, 5010
 5011, 5012, 5013, 5014, 7204, 7404, 7604, 7804, 8004, 8005, 8205, 8405, 8605, 8805
*Nset, nset=t_Set-15
9369,9370,9373,9375,9377,9378,9479,9480,9481,9482,9689,9690,9691,9692,9702,9703
9704,9705,9706,9707,9708,9709,9710,9913,9914,9915,9916,9917,9918,9919,9920
*Elset, elset=t_Set-15
 9104, 9204, 9304, 9404, 9504, 9505, 9605, 9705, 9805, 9905,10995,10996,10997,10998,10999,11000
11001,11002,11003,11004,11005,11105,11205,11305,11405,11604,11704,11804,11904,12004
*Nset, nset=t_Set-19
12510,12511,12514,12516,12518,12519,12620,12621,12622,12623,12830,12831,12832,12833,12843,12844
12845,12846,12847,12848,12849,12850,12851,13054,13055,13056,13057,13058,13059,13060,13061
*Elset, elset=t_Set-19
12112,12212,12312,12412,12512,12513,12613,12713,12813,12913,14003,14004,14005,14006,14007,14008
14009,14010,14011,14012,14013,14113,14213,14313,14413,14612,14712,14812,14912,15012
*Nset, nset=_PickedSet9
15640,
*Nset, nset=_PickedSet26
15641,
*Nset, nset=_PickedSet29
15642,
*Nset, nset=_PickedSet39
15643,
*Nset, nset=_PickedSet51
15644,
*Surface, type=NODE, name=s_Set-17_CNS_
s_Set-17, 1.
** Constraint: Constraint-1
*Rigid Body, ref node=_PickedSet9, tie nset=t_Set-2
** Constraint: Constraint-2
*Rigid Body, ref node=_PickedSet26, tie nset=t_Set-9
** Constraint: Constraint-3
*Rigid Body, ref node=_PickedSet29, tie nset=t_Set-11
** Constraint: Constraint-4
*Rigid Body, ref node=_PickedSet39, tie nset=t_Set-15
** Constraint: Constraint-5
*Coupling, constraint name=Constraint-5, ref node=m_Set-17, surface=s_Set-17_CNS_
*Kinematic
1, 1
2, 2
3, 3
** Constraint: Constraint-6
*Rigid Body, ref node=_PickedSet51, tie nset=t_Set-19
** 
** MATERIALS
** 
*Material, name=Material-1
*Elastic
200000., 0.3
** 
** BOUNDARY CONDITIONS
** 
** Name: BC-1 Type: Displacement/Rotation
*Boundary
Set-14, 1, 1
Set-14, 2, 2
Set-14, 3, 3
Set-14, 4, 4
Set-14, 5, 5
Set-14, 6, 6
** ----------------------------------------------------------------
** 
** STEP: Step-1
** 
*Step, name=Step-1, nlgeom=NO, inc=1000
*Static
0.1, 1., 1e-05, 0.1
** 
** LOADS
** 
** Name: mz   Type: Moment
*Cload
load_nodes, 6, 5e+06
** 
** OUTPUT REQUESTS
** 
*Restart, write, frequency=0
** 
** FIELD OUTPUT: F-Output-1
** 
*Output, field
*Node Output
CF, RF, U
*Element Output, directions=YES
FV, LE, PE, PEEQ, PEMAG, S
*Contact Output
CDISP, CSTRESS
** 
** HISTORY OUTPUT: H-Output-1
** 
*Output, history, variable=PRESELECT
*End Step
