*Heading
** Job name: Center_Tor_Macro-EQN-NL Model name: Center_Tor_Macro-EQN-NL
** Generated by: Abaqus/CAE 6.14-1
*Preprint, echo=NO, model=NO, history=NO, contact=NO
** ----------------------------------------------------------------
** 
** PART INSTANCE: shell-1
** 
*Node
      1,           0.,  -70.0999985,        482.5
      2,           0.,  -70.0999985,           0.
      3,   75.4499969,  -70.0999985,           0.
      4,   75.4499969,  -70.0999985,        482.5
      5,  -75.4499969,  -70.0999985,        482.5
      6,  -75.4499969,  -70.0999985,           0.
      7,           0.,   70.0999985,        482.5
      8,           0.,   70.0999985,           0.
      9,   75.4499969,   70.0999985,           0.
     10,   75.4499969,   70.0999985,        482.5
     11,  -75.4499969,   70.0999985,        482.5
     12,  -75.4499969,   70.0999985,           0.
     13,           0.,  -70.0999985,   464.629639
     14,           0.,  -70.0999985,   446.759247
     15,           0.,  -70.0999985,   428.888885
     16,           0.,  -70.0999985,   411.018524
     17,           0.,  -70.0999985,   393.148163
     18,           0.,  -70.0999985,   375.277771
     19,           0.,  -70.0999985,    357.40741
     20,           0.,  -70.0999985,   339.537048
** ... 680 like lines cut
*Element, type=S4R
  1,   1,  13, 207,  70
  2,  13,  14, 208, 207
  3,  14,  15, 209, 208
  4,  15,  16, 210, 209
  5,  16,  17, 211, 210
  6,  17,  18, 212, 211
  7,  18,  19, 213, 212
  8,  19,  20, 214, 213
  9,  20,  21, 215, 214
 10,  21,  22, 216, 215
 11,  22,  23, 217, 216
 12,  23,  24, 218, 217
 13,  24,  25, 219, 218
 14,  25,  26, 220, 219
 15,  26,  27, 221, 220
 16,  27,  28, 222, 221
 17,  28,  29, 223, 222
 18,  29,  30, 224, 223
 19,  30,  31, 225, 224
 20,  31,  32, 226, 225
** ... 628 like lines cut
*Nset, nset=shell-1_Set-1
   1,   2,   3,   4,   5,   6,   7,   8,   9,  10,  11,  12,  13,  14,  15,  16
  17,  18,  19,  20,  21,  22,  23,  24,  25,  26,  27,  28,  29,  30,  31,  32
  33,  34,  35,  36,  37,  38,  39,  40,  41,  42,  43,  44,  45,  46,  47,  48
  49,  50,  51,  52,  53,  54,  55,  56,  57,  58,  59,  60,  61,  62,  63,  64
  65,  66,  67,  68,  69,  70,  71,  72,  73,  74,  75,  76,  77,  78,  79,  80
  81,  82,  83,  84,  85,  86,  87,  88,  89,  90,  91,  92,  93,  94,  95,  96
  97,  98,  99, 100, 101, 102, 103, 104, 105, 106, 107, 108, 109, 110, 111, 112
 113, 114, 115, 116, 117, 118, 119, 120, 121, 122, 123, 124, 125, 126, 127, 128
 129, 130, 131, 132, 133, 134, 135, 136, 137, 138, 139, 140, 141, 142, 143, 144
 145, 146, 147, 148, 149, 150, 151, 152, 153, 154, 155, 156, 157, 158, 159, 160
 161, 162, 163, 164, 165, 166, 167, 168, 169, 170, 171, 172, 173, 174, 175, 176
 177, 178, 179, 180, 181, 182, 183, 184, 185, 186, 187, 188, 189, 190, 191, 192
 207, 208, 209, 210, 211, 212, 213, 214, 215, 216, 217, 218, 219, 220, 221, 222
 223, 224, 225, 226, 227, 228, 229, 230, 231, 232, 233, 234, 235, 236, 237, 238
 239, 240, 241, 242, 243, 244, 245, 246, 247, 248, 249, 250, 251, 252, 253, 254
 255, 256, 257, 258, 259, 260, 261, 262, 263, 264, 265, 266, 267, 268, 269, 270
 271, 272, 273, 274, 275, 276, 277, 278, 279, 280, 281, 282, 283, 284, 285, 286
 287, 288, 289, 290, 291, 292, 293, 294, 295, 296, 297, 298, 299, 300, 301, 302
 303, 304, 305, 306, 307, 308, 309, 310, 311, 312, 313, 314, 315, 316, 317, 318
 319, 320, 321, 322, 323, 324, 325, 326, 327, 328, 329, 330, 331, 332, 333, 334
** ... 12 like lines cut
*Elset, elset=shell-1_Set-1, generate
   1,  432,    1
*Nset, nset=shell-1_Set-2
   1,   2,   7,   8,  13,  14,  15,  16,  17,  18,  19,  20,  21,  22,  23,  24
  25,  26,  27,  28,  29,  30,  31,  32,  33,  34,  35,  36,  37,  38, 103, 104
 105, 106, 107, 108, 109, 110, 111, 112, 113, 114, 115, 116, 117, 118, 119, 120
 121, 122, 123, 124, 125, 126, 127, 128, 193, 194, 195, 196, 197, 198, 199, 200
 201, 202, 203, 204, 205, 206, 519, 520, 521, 522, 523, 524, 525, 526, 527, 528
 529, 530, 531, 532, 533, 534, 535, 536, 537, 538, 539, 540, 541, 542, 543, 544
 545, 546, 547, 548, 549, 550, 551, 552, 553, 554, 555, 556, 557, 558, 559, 560
 561, 562, 563, 564, 565, 566, 567, 568, 569, 570, 571, 572, 573, 574, 575, 576
 577, 578, 579, 580, 581, 582, 583, 584, 585, 586, 587, 588, 589, 590, 591, 592
 593, 594, 595, 596, 597, 598, 599, 600, 601, 602, 603, 604, 605, 606, 607, 608
 609, 610, 611, 612, 613, 614, 615, 616, 617, 618, 619, 620, 621, 622, 623, 624
 625, 626, 627, 628, 629, 630, 631, 632, 633, 634, 635, 636, 637, 638, 639, 640
 641, 642, 643, 644, 645, 646, 647, 648, 649, 650, 651, 652, 653, 654, 655, 656
 657, 658, 659, 660, 661, 662, 663, 664, 665, 666, 667, 668, 669, 670, 671, 672
 673, 674, 675, 676, 677, 678, 679, 680, 681, 682, 683, 684, 685, 686, 687, 688
 689, 690, 691, 692, 693, 694, 695, 696, 697, 698, 699, 700
*Elset, elset=shell-1_Set-2, generate
 433,  648,    1
*Nset, nset=shell-1_shell_top_web, generate
 193,  199,    1
*Nset, nset=shell-1_shell_bot_web, generate
 200,  206,    1
** Section: flange
*Shell Section, elset=shell-1_Set-1, material=beam_mat
12.2, 5
** Section: web
*Shell Section, elset=shell-1_Set-2, material=beam_mat
8., 5
** ----------------------------------------------------------------
** 
** PART INSTANCE: shell-2
** 
*System
          0.,          0.,      1447.5,          1.,          0.,      1447.5
*Node
    701,           0.,  -70.0999985,        482.5
    702,           0.,  -70.0999985,           0.
    703,   75.4499969,  -70.0999985,           0.
    704,   75.4499969,  -70.0999985,        482.5
    705,  -75.4499969,  -70.0999985,        482.5
    706,  -75.4499969,  -70.0999985,           0.
    707,           0.,   70.0999985,        482.5
    708,           0.,   70.0999985,           0.
    709,   75.4499969,   70.0999985,           0.
    710,   75.4499969,   70.0999985,        482.5
    711,  -75.4499969,   70.0999985,        482.5
    712,  -75.4499969,   70.0999985,           0.
    713,           0.,  -70.0999985,   464.629639
    714,           0.,  -70.0999985,   446.759247
    715,           0.,  -70.0999985,   428.888885
    716,           0.,  -70.0999985,   411.018524
    717,           0.,  -70.0999985,   393.148163
    718,           0.,  -70.0999985,   375.277771
    719,           0.,  -70.0999985,    357.40741
    720,           0.,  -70.0999985,   339.537048
** ... 680 like lines cut
*Element, type=S4R
649, 701, 713, 907, 770
650, 713, 714, 908, 907
651, 714, 715, 909, 908
652, 715, 716, 910, 909
653, 716, 717, 911, 910
654, 717, 718, 912, 911
655, 718, 719, 913, 912
656, 719, 720, 914, 913
657, 720, 721, 915, 914
658, 721, 722, 916, 915
659, 722, 723, 917, 916
660, 723, 724, 918, 917
661, 724, 725, 919, 918
662, 725, 726, 920, 919
663, 726, 727, 921, 920
664, 727, 728, 922, 921
665, 728, 729, 923, 922
666, 729, 730, 924, 923
667, 730, 731, 925, 924
668, 731, 732, 926, 925
** ... 628 like lines cut
*Nset, nset=shell-2_Set-1
 701, 702, 703, 704, 705, 706, 707, 708, 709, 710, 711, 712, 713, 714, 715, 716
 717, 718, 719, 720, 721, 722, 723, 724, 725, 726, 727, 728, 729, 730, 731, 732
 733, 734, 735, 736, 737, 738, 739, 740, 741, 742, 743, 744, 745, 746, 747, 748
 749, 750, 751, 752, 753, 754, 755, 756, 757, 758, 759, 760, 761, 762, 763, 764
 765, 766, 767, 768, 769, 770, 771, 772, 773, 774, 775, 776, 777, 778, 779, 780
 781, 782, 783, 784, 785, 786, 787, 788, 789, 790, 791, 792, 793, 794, 795, 796
 797, 798, 799, 800, 801, 802, 803, 804, 805, 806, 807, 808, 809, 810, 811, 812
 813, 814, 815, 816, 817, 818, 819, 820, 821, 822, 823, 824, 825, 826, 827, 828
 829, 830, 831, 832, 833, 834, 835, 836, 837, 838, 839, 840, 841, 842, 843, 844
 845, 846, 847, 848, 849, 850, 851, 852, 853, 854, 855, 856, 857, 858, 859, 860
 861, 862, 863, 864, 865, 866, 867, 868, 869, 870, 871, 872, 873, 874, 875, 876
 877, 878, 879, 880, 881, 882, 883, 884, 885, 886, 887, 888, 889, 890, 891, 892
 907, 908, 909, 910, 911, 912, 913, 914, 915, 916, 917, 918, 919, 920, 921, 922
 923, 924, 925, 926, 927, 928, 929, 930, 931, 932, 933, 934, 935, 936, 937, 938
 939, 940, 941, 942, 943, 944, 945, 946, 947, 948, 949, 950, 951, 952, 953, 954
 955, 956, 957, 958, 959, 960, 961, 962, 963, 964, 965, 966, 967, 968, 969, 970
 971, 972, 973, 974, 975, 976, 977, 978, 979, 980, 981, 982, 983, 984, 985, 986
 987, 988, 989, 990, 991, 992, 993, 994, 995, 996, 997, 998, 999,1000,1001,1002
1003,1004,1005,1006,1007,1008,1009,1010,1011,1012,1013,1014,1015,1016,1017,1018
1019,1020,1021,1022,1023,1024,1025,1026,1027,1028,1029,1030,1031,1032,1033,1034
** ... 12 like lines cut
*Elset, elset=shell-2_Set-1, generate
 649, 1080,    1
*Nset, nset=shell-2_Set-2
 701, 702, 707, 708, 713, 714, 715, 716, 717, 718, 719, 720, 721, 722, 723, 724
 725, 726, 727, 728, 729, 730, 731, 732, 733, 734, 735, 736, 737, 738, 803, 804
 805, 806, 807, 808, 809, 810, 811, 812, 813, 814, 815, 816, 817, 818, 819, 820
 821, 822, 823, 824, 825, 826, 827, 828, 893, 894, 895, 896, 897, 898, 899, 900
 901, 902, 903, 904, 905, 906,1219,1220,1221,1222,1223,1224,1225,1226,1227,1228
1229,1230,1231,1232,1233,1234,1235,1236,1237,1238,1239,1240,1241,1242,1243,1244
1245,1246,1247,1248,1249,1250,1251,1252,1253,1254,1255,1256,1257,1258,1259,1260
1261,1262,1263,1264,1265,1266,1267,1268,1269,1270,1271,1272,1273,1274,1275,1276
1277,1278,1279,1280,1281,1282,1283,1284,1285,1286,1287,1288,1289,1290,1291,1292
1293,1294,1295,1296,1297,1298,1299,1300,1301,1302,1303,1304,1305,1306,1307,1308
1309,1310,1311,1312,1313,1314,1315,1316,1317,1318,1319,1320,1321,1322,1323,1324
1325,1326,1327,1328,1329,1330,1331,1332,1333,1334,1335,1336,1337,1338,1339,1340
1341,1342,1343,1344,1345,1346,1347,1348,1349,1350,1351,1352,1353,1354,1355,1356
1357,1358,1359,1360,1361,1362,1363,1364,1365,1366,1367,1368,1369,1370,1371,1372
1373,1374,1375,1376,1377,1378,1379,1380,1381,1382,1383,1384,1385,1386,1387,1388
1389,1390,1391,1392,1393,1394,1395,1396,1397,1398,1399,1400
*Elset, elset=shell-2_Set-2, generate
1081, 1296,    1
*Nset, nset=shell-2_shell_top_web, generate
 893,  899,    1
*Nset, nset=shell-2_shell_bot_web, generate
 900,  906,    1
** Section: flange
*Shell Section, elset=shell-2_Set-1, material=beam_mat
12.2, 5
** Section: web
*Shell Section, elset=shell-2_Set-2, material=beam_mat
8., 5
** ----------------------------------------------------------------
** 
** PART INSTANCE: beam-1
** 
*System
          0.,          0.,       482.5, 6.12323399573677e-17,          1.,       482.5
 -6.12323399573677e-17, 3.74939945665464e-33,       483.5
*Node
   1401,           0.,           0.,           0.
   1402,           0.,        482.5,           0.
   1403,           0.,         965.,           0.
   1404,           0.,         96.5,           0.
   1405,           0.,         193.,           0.
   1406,           0.,        289.5,           0.
   1407,           0.,         386.,           0.
   1408,           0.,         579.,           0.
   1409,           0.,        675.5,           0.
   1410,           0.,         772.,           0.
   1411,           0.,        868.5,           0.
   1412,           0.,        48.25,           0.
   1413,           0.,       144.75,           0.
   1414,           0.,       241.25,           0.
   1415,           0.,       337.75,           0.
   1416,           0.,       434.25,           0.
   1417,           0.,       530.75,           0.
   1418,           0.,       627.25,           0.
   1419,           0.,       723.75,           0.
   1420,           0.,       820.25,           0.
   1421,           0.,       916.75,           0.
*Element, type=B32OS
1297, 1401, 1412, 1404
1298, 1404, 1413, 1405
1299, 1405, 1414, 1406
1300, 1406, 1415, 1407
1301, 1407, 1416, 1402
1302, 1402, 1417, 1408
1303, 1408, 1418, 1409
1304, 1409, 1419, 1410
1305, 1410, 1420, 1411
1306, 1411, 1421, 1403
*Nset, nset=beam-1_Set-1, generate
1401, 1421,   1
*Elset, elset=beam-1_Set-1, generate
1297, 1306,  1
*Nset, nset=beam-1_Set-2, generate
1401, 1421,   1
*Elset, elset=beam-1_Set-2, generate
1297, 1306,  1
*Nset, nset=beam-1_beam_bot_node
1401,
*Nset, nset=beam-1_beam_top_node
1403,
** Section: beam  Profile: Iprof
*Beam Section, elset=beam-1_Set-1, material=beam_mat, temperature=GRADIENTS, section=I
76.2, 152.4, 150.9, 150.9, 12.2, 12.2, 8.
-1.,6.12323e-17,-6.12323e-17
*System
*Node
   1422,           0.,           0.,        1930.
*Node
   1423,           0.,           0.,           0.
*Nset, nset=Set-5
1402,
*Nset, nset=Set-6
1422,
*Nset, nset=Set-7
1423,
*Nset, nset=bot_couple_shell_nodes
   1,   4,   5,   7,  10,  11,  68,  69,  70,  71,  72,  73, 158, 159, 160, 161
 162, 163, 193, 194, 195, 196, 197, 198, 199
*Nset, nset=m_Set-1
1422,
*Nset, nset=m_Set-2
1422,
*Nset, nset=m_Set-3
1423,
*Nset, nset=m_Set-4
1423,
*Nset, nset=top_couple_shell_nodes
 702, 703, 706, 708, 709, 712, 739, 740, 741, 800, 801, 802, 829, 830, 831, 890
 891, 892, 900, 901, 902, 903, 904, 905, 906
*Elset, elset=_s_Surf-1_E2
 675, 702, 729, 756, 891, 918, 945, 972
*Elset, elset=_s_Surf-1_E4
 757, 784, 811, 838, 973,1000,1027,1054
*Elset, elset=_s_Surf-1_E3, generate
1289, 1296,    1
*Surface, type=ELEMENT, name=s_Surf-1
_s_Surf-1_E2, E2
_s_Surf-1_E4, E4
_s_Surf-1_E3, E3
*Elset, elset=_s_Surf-2_E4
   1,  28,  55,  82, 217, 244, 271, 298
*Elset, elset=_s_Surf-2_E2
 135, 162, 189, 216, 351, 378, 405, 432
*Elset, elset=_s_Surf-2_E1, generate
 433,  440,    1
*Surface, type=ELEMENT, name=s_Surf-2
_s_Surf-2_E4, E4
_s_Surf-2_E2, E2
_s_Surf-2_E1, E1
*Elset, elset=_s_Surf-3_E4
 649, 676, 703, 730, 865, 892, 919, 946
*Elset, elset=_s_Surf-3_E2
 783, 810, 837, 864, 999,1026,1053,1080
*Surface, type=ELEMENT, name=s_Surf-3
_s_Surf-3_E4, E4
_s_Surf-3_E2, E2
*Elset, elset=_s_Surf-4_E2
  27,  54,  81, 108, 243, 270, 297, 324
*Elset, elset=_s_Surf-4_E4
 109, 136, 163, 190, 325, 352, 379, 406
*Surface, type=ELEMENT, name=s_Surf-4
_s_Surf-4_E2, E2
_s_Surf-4_E4, E4
*Elset, elset=_s_Surf-5_E4
   1,  28,  55,  82, 217, 244, 271, 298
*Elset, elset=_s_Surf-5_E2
 135, 162, 189, 216, 351, 378, 405, 432
*Surface, type=ELEMENT, name=s_Surf-5
_s_Surf-5_E4, E4
_s_Surf-5_E2, E2
*Elset, elset=_s_Surf-6_E2
 675, 702, 729, 756, 891, 918, 945, 972
*Elset, elset=_s_Surf-6_E4
 757, 784, 811, 838, 973,1000,1027,1054
*Surface, type=ELEMENT, name=s_Surf-6
_s_Surf-6_E2, E2
_s_Surf-6_E4, E4
*Surface, type=NODE, name=shell-1_shell_bot_web_CNS_
shell-1_shell_bot_web, 1.
*Surface, type=NODE, name=shell-2_shell_top_web_CNS_
shell-2_shell_top_web, 1.
** Constraint: bot_flange
*Coupling, constraint name=bot_flange, ref node=m_Set-4, surface=s_Surf-4
*Kinematic
1, 1
2, 2
4, 4
6, 6
** Constraint: bot_web
*Coupling, constraint name=bot_web, ref node=m_Set-3, surface=shell-1_shell_bot_web_CNS_
*Kinematic
** Constraint: top_flange
*Coupling, constraint name=top_flange, ref node=m_Set-2, surface=s_Surf-3
*Kinematic
1, 1
2, 2
4, 4
6, 6
** Constraint: top_web
*Coupling, constraint name=top_web, ref node=m_Set-1, surface=shell-2_shell_top_web_CNS_
*Kinematic
** 
** MATERIALS
** 
*Material, name=beam_mat
*Elastic
213400., 0.3
*Plastic
  285.,      0.
  289., 0.01329
 876.2,   0.094
** 
** BOUNDARY CONDITIONS
** 
** Name: bot_bc Type: Displacement/Rotation
*Boundary
Set-7, 1, 1
Set-7, 2, 2
Set-7, 3, 3
Set-7, 6, 6
** Name: top_bc Type: Displacement/Rotation
*Boundary
Set-6, 1, 1
Set-6, 2, 2
Set-6, 3, 3
Set-6, 6, 6
** ----------------------------------------------------------------
** 
** STEP: loading
** 
*Step, name=loading, nlgeom=YES, inc=1000
*Static
0.05, 1., 1e-25, 0.05
** 
** LOADS
** 
** Name: torsion   Type: Moment
*Cload
Set-5, 6, 2.5e+07
** 
** OUTPUT REQUESTS
** 
*Restart, write, frequency=0
** 
** FIELD OUTPUT: F-Output-1
** 
*Output, field, variable=PRESELECT, time interval=0.05
** 
** HISTORY OUTPUT: H-Output-1
** 
*Output, history
*Node Output, nset=beam-1_beam_bot_node
WARP, 
*End Step
