*Heading
** Job name: SubAssem-W27X235-FS-Imp Model name: SubAssem-W27X235-FS-Imp
** Generated by: Abaqus/CAE 6.14-1
*Preprint, echo=NO, model=NO, history=NO, contact=NO
** ----------------------------------------------------------------
** 
** PART INSTANCE: column-1
** 
*Node
      1,        180.5,  -344.049988,    4955.8999
      2,           0.,  -344.049988,    4955.8999
      3,           0.,  -344.049988,           0.
      4,        180.5,  -344.049988,           0.
      5,           0.,   344.049988,    4955.8999
      6,           0.,   344.049988,    5055.8999
      7,           0.,  -344.049988,    5055.8999
      8,        180.5,   344.049988,    5944.1001
      9,           0.,   344.049988,    5944.1001
     10,        180.5,   344.049988,    5055.8999
     11,       -180.5,   344.049988,    5944.1001
     12,           0.,   344.049988,        8250.
     13,       -180.5,   344.049988,        8250.
     14,        180.5,  -344.049988,    5944.1001
     15,           0.,  -344.049988,    5944.1001
     16,        180.5,  -344.049988,    5055.8999
     17,       -180.5,  -344.049988,    5944.1001
     18,       -180.5,  -344.049988,    5055.8999
     19,       -180.5,   344.049988,    5055.8999
     20,        180.5,   344.049988,    4955.8999
** ... 14396 like lines cut
*Element, type=S4R
   1,    1,   31, 1822,  436
   2,   31,   32, 1823, 1822
   3,   32,   33, 1824, 1823
   4,   33,   34, 1825, 1824
   5,   34,   35, 1826, 1825
   6,   35,   36, 1827, 1826
   7,   36,    2,   37, 1827
   8,  436, 1822, 1828,  435
   9, 1822, 1823, 1829, 1828
  10, 1823, 1824, 1830, 1829
  11, 1824, 1825, 1831, 1830
  12, 1825, 1826, 1832, 1831
  13, 1826, 1827, 1833, 1832
  14, 1827,   37,   38, 1833
  15,  435, 1828, 1834,  434
  16, 1828, 1829, 1835, 1834
  17, 1829, 1830, 1836, 1835
  18, 1830, 1831, 1837, 1836
  19, 1831, 1832, 1838, 1837
  20, 1832, 1833, 1839, 1838
** ... 14074 like lines cut
*Element, type=S3
14017, 14375, 14372, 14371
14018, 14369,  1811,  1812
14019, 14378, 14370, 14369
14039, 14381,   464,   465
14061, 14395,   465,   464
14062, 14401, 14399, 14397
14063, 14403, 14394, 14395
14083, 14412, 14411, 14409
14084, 14406,   495,   496
14085, 14415, 14407, 14406
*Nset, nset=column-1_Set-1
     1,     2,     3,     4,     5,     6,     7,     8,     9,    10,    11,    12,    13,    14,    15,    16
    17,    18,    19,    20,    21,    22,    23,    24,    25,    26,    27,    28,    29,    30,    31,    32
    33,    34,    35,    36,    37,    38,    39,    40,    41,    42,    43,    44,    45,    46,    47,    48
    49,    50,    51,    52,    53,    54,    55,    56,    57,    58,    59,    60,    61,    62,    63,    64
    65,    66,    67,    68,    69,    70,    71,    72,    73,    74,    75,    76,    77,    78,    79,    80
    81,    82,    83,    84,    85,    86,    87,    88,    89,    90,    91,    92,    93,    94,    95,    96
    97,    98,    99,   100,   101,   102,   103,   104,   105,   106,   107,   108,   109,   110,   111,   112
   113,   114,   115,   116,   117,   118,   119,   120,   121,   122,   123,   124,   125,   126,   127,   128
   129,   130,   131,   132,   133,   134,   135,   136,   137,   138,   139,   140,   141,   142,   143,   144
   145,   146,   147,   148,   149,   150,   151,   152,   153,   154,   155,   156,   157,   158,   159,   160
   161,   162,   163,   164,   165,   166,   167,   168,   169,   170,   171,   172,   173,   174,   175,   176
   177,   178,   179,   180,   181,   182,   183,   184,   185,   186,   187,   188,   189,   190,   191,   192
   193,   194,   195,   196,   197,   198,   199,   200,   201,   202,   203,   204,   205,   206,   207,   208
   209,   210,   211,   212,   213,   214,   215,   216,   217,   218,   219,   220,   221,   222,   223,   224
   225,   226,   227,   228,   229,   230,   231,   232,   233,   234,   235,   236,   237,   238,   239,   240
   241,   242,   243,   244,   245,   246,   247,   248,   249,   250,   251,   252,   253,   254,   255,   256
   257,   258,   259,   260,   261,   262,   263,   264,   265,   266,   267,   268,   269,   270,   271,   272
   273,   274,   275,   276,   277,   278,   279,   280,   281,   282,   283,   284,   285,   286,   287,   288
   289,   290,   291,   292,   293,   294,   295,   296,   297,   298,   299,   300,   301,   302,   303,   304
   305,   306,   307,   308,   309,   310,   311,   312,   313,   314,   315,   316,   317,   318,   319,   320
** ... 431 like lines cut
*Elset, elset=column-1_Set-1
     1,     2,     3,     4,     5,     6,     7,     8,     9,    10,    11,    12,    13,    14,    15,    16
    17,    18,    19,    20,    21,    22,    23,    24,    25,    26,    27,    28,    29,    30,    31,    32
    33,    34,    35,    36,    37,    38,    39,    40,    41,    42,    43,    44,    45,    46,    47,    48
    49,    50,    51,    52,    53,    54,    55,    56,    57,    58,    59,    60,    61,    62,    63,    64
    65,    66,    67,    68,    69,    70,    71,    72,    73,    74,    75,    76,    77,    78,    79,    80
    81,    82,    83,    84,    85,    86,    87,    88,    89,    90,    91,    92,    93,    94,    95,    96
    97,    98,    99,   100,   101,   102,   103,   104,   105,   106,   107,   108,   109,   110,   111,   112
   113,   114,   115,   116,   117,   118,   119,   120,   121,   122,   123,   124,   125,   126,   127,   128
   129,   130,   131,   132,   133,   134,   135,   136,   137,   138,   139,   140,   141,   142,   143,   144
   145,   146,   147,   148,   149,   150,   151,   152,   153,   154,   155,   156,   157,   158,   159,   160
   161,   162,   163,   164,   165,   166,   167,   168,   169,   170,   171,   172,   173,   174,   175,   176
   177,   178,   179,   180,   181,   182,   183,   184,   185,   186,   187,   188,   189,   190,   191,   192
   193,   194,   195,   196,   197,   198,   199,   200,   201,   202,   203,   204,   205,   206,   207,   208
   209,   210,   211,   212,   213,   214,   215,   216,   217,   218,   219,   220,   221,   222,   223,   224
   225,   226,   227,   228,   229,   230,   231,   232,   233,   234,   235,   236,   237,   238,   239,   240
   241,   242,   243,   244,   245,   246,   247,   248,   249,   250,   251,   252,   253,   254,   255,   256
   257,   258,   259,   260,   261,   262,   263,   264,   265,   266,   267,   268,   269,   270,   271,   272
   273,   274,   275,   276,   277,   278,   279,   280,   281,   282,   283,   284,   285,   286,   287,   288
   289,   290,   291,   292,   293,   294,   295,   296,   297,   298,   299,   300,   301,   302,   303,   304
   305,   306,   307,   308,   309,   310,   311,   312,   313,   314,   315,   316,   317,   318,   319,   320
** ... 396 like lines cut
*Nset, nset=column-1_Set-2
     2,     3,     5,     6,     7,     9,    12,    15,    21,    23,    37,    38,    39,    40,    41,    42
    43,    44,    45,    46,    47,    48,    49,    50,    51,    52,    53,    54,    55,    56,    57,    58
    59,    60,    61,    62,    63,    64,    65,    66,    67,    68,    69,    70,    71,    72,    73,    74
    75,    76,    77,    78,    79,    80,    81,    82,    83,    84,    85,    86,    87,    88,    89,    90
    91,    92,    93,    94,    95,    96,    97,    98,    99,   100,   101,   102,   103,   104,   105,   106
   107,   108,   109,   110,   111,   112,   113,   114,   115,   116,   117,   118,   119,   120,   121,   122
   123,   124,   125,   126,   127,   128,   129,   130,   131,   132,   133,   134,   135,   136,   137,   138
   139,   140,   141,   142,   143,   144,   145,   146,   147,   148,   149,   150,   151,   152,   153,   154
   155,   156,   157,   158,   159,   160,   161,   162,   163,   164,   165,   166,   167,   168,   169,   170
   171,   172,   173,   174,   175,   176,   177,   178,   179,   180,   181,   182,   183,   184,   185,   186
   187,   188,   189,   190,   191,   192,   193,   194,   195,   196,   197,   198,   199,   200,   201,   202
   203,   204,   205,   206,   207,   208,   209,   210,   211,   212,   213,   214,   215,   216,   217,   218
   219,   220,   221,   222,   223,   224,   225,   226,   227,   228,   229,   230,   231,   232,   233,   437
   438,   439,   440,   441,   442,   443,   444,   445,   446,   447,   448,   449,   450,   451,   452,   453
   454,   455,   456,   457,   458,   459,   460,   461,   462,   463,   464,   465,   466,   467,   468,   469
   470,   471,   472,   473,   474,   475,   476,   477,   478,   479,   480,   481,   482,   483,   484,   485
   486,   487,   488,   489,   490,   491,   492,   493,   494,   495,   496,   500,   501,   502,   503,   504
   505,   506,   507,   508,   509,   510,   511,   512,   513,   514,   515,   516,   540,   541,   542,   543
   544,   545,   546,   547,   548,   549,   550,   551,   552,   553,   554,   555,   556,   557,   558,   559
   560,   561,   562,   563,   564,   565,   566,   567,   568,   569,   570,   571,   572,   573,   574,   575
** ... 464 like lines cut
*Elset, elset=column-1_Set-2
  1387,  1388,  1389,  1390,  1391,  1392,  1393,  1394,  1395,  1396,  1397,  1398,  1399,  1400,  1401,  1402
  1403,  1404,  1405,  1406,  1407,  1408,  1409,  1410,  1411,  1412,  1413,  1414,  1415,  1416,  1417,  1418
  1419,  1420,  1421,  1422,  1423,  1424,  1425,  1426,  1427,  1428,  1429,  1430,  1431,  1432,  1433,  1434
  1435,  1436,  1437,  1438,  1439,  1440,  1441,  1442,  1443,  1444,  1445,  1446,  1447,  1448,  1449,  1450
  1451,  1452,  1453,  1454,  1455,  1456,  1457,  1458,  1459,  1460,  1461,  1462,  1463,  1464,  1465,  1466
  1467,  1468,  1469,  1470,  1471,  1472,  1473,  1474,  1475,  1476,  1477,  1478,  1479,  1480,  1481,  1482
  1483,  1484,  1485,  1486,  1487,  1488,  1489,  1490,  1491,  1492,  1493,  1494,  1495,  1496,  1497,  1498
  1827,  1828,  1829,  1830,  1831,  1832,  1833,  1834,  1835,  1836,  1837,  1838,  1839,  1840,  1841,  1842
  1843,  1844,  1845,  1846,  1847,  1848,  1849,  1850,  1851,  1852,  1853,  1854,  1855,  1856,  1857,  1858
  1859,  1860,  1861,  1862,  1863,  1864,  1865,  1866,  1867,  1868,  1869,  1870,  1871,  1872,  1873,  1874
  1875,  1876,  1877,  1878,  1879,  1880,  1881,  1882,  1883,  1884,  1885,  1886,  1887,  1888,  1889,  1890
  1891,  1892,  1893,  1894,  1895,  1896,  1897,  1898,  1899,  1900,  1901,  1902,  1903,  1904,  1905,  1906
  1907,  1908,  1909,  1910,  1911,  1912,  1913,  1914,  1915,  1916,  1917,  1918,  1919,  1920,  1921,  1922
  1923,  1924,  1925,  1926,  1927,  1928,  1929,  1930,  1931,  1932,  1933,  1934,  1935,  1936,  1937,  1938
  1939,  1940,  1941,  1942,  1943,  1944,  1945,  1946,  1947,  1948,  1949,  1950,  1951,  1952,  1953,  1954
  1955,  1956,  1957,  1958,  1959,  1960,  1961,  1962,  1963,  1964,  1965,  1966,  1967,  1968,  1969,  1970
  1971,  1972,  1973,  1974,  1975,  1976,  1977,  1978,  1979,  1980,  1981,  1982,  1983,  1984,  1985,  1986
  1987,  1988,  1989,  1990,  1991,  1992,  1993,  1994,  1995,  1996,  1997,  1998,  1999,  2000,  2001,  2002
  2003,  2004,  2005,  2006,  2007,  2008,  2009,  2010,  2011,  2012,  2013,  2014,  2015,  2016,  2017,  2018
  2019,  2020,  2021,  2022,  2023,  2024,  2025,  2026,  2027,  2028,  2029,  2030,  2031,  2032,  2033,  2034
** ... 446 like lines cut
*Nset, nset=column-1_all_nodes, generate
     1,  14416,      1
*Elset, elset=column-1_all_nodes, generate
     1,  14104,      1
*Nset, nset=column-1_top_cont_nodes
   8,   9,  11,  14,  15,  17, 497, 498, 499, 537, 538, 539, 633, 634, 635, 673
 674, 675, 676, 677, 678, 679, 680, 681, 682, 683, 684, 685, 686, 687, 688, 689
 690, 691, 692, 693, 694, 695, 696, 697, 698, 699, 700, 701, 702
*Elset, elset=column-1_top_cont_nodes
  1499,  1500,  1501,  1502,  1571,  1572,  1573,  1574,  1755,  1756,  1757,  1758,  1827,  1828,  1829,  1830
  1831,  1832,  1833,  1834,  1835,  1836,  1837,  1838,  1839,  1840,  1841,  1842,  1843,  1844,  1845,  1846
  1847,  1848,  1849,  1850,  1851,  1852,  1853,  1854,  2331,  2332,  2333,  2334,  2403,  2404,  2405,  2406
  9405,  9406,  9407,  9408,  9589,  9590,  9591,  9592, 11159, 11160, 11161, 11162, 11163, 11164, 11165, 11166
 11167, 11168, 11169, 11170, 11171, 11172, 11173, 11174, 11175, 11176, 11177, 11178, 11179, 11180, 11181, 11182
 11183, 11184, 11185, 11186, 13833, 13834, 13835, 13836
*Nset, nset=column-1_bot_cont_nodes
   6,   7,  10,  16,  18,  19, 467, 468, 469, 470, 471, 472, 473, 474, 475, 476
 477, 478, 479, 480, 481, 482, 483, 484, 485, 486, 487, 488, 489, 490, 491, 492
 493, 517, 518, 519, 653, 654, 655, 720, 721, 722, 740, 741, 742
*Elset, elset=column-1_bot_cont_nodes
  1471,  1472,  1473,  1474,  1475,  1476,  1477,  1478,  1479,  1480,  1481,  1482,  1483,  1484,  1485,  1486
  1487,  1488,  1489,  1490,  1491,  1492,  1493,  1494,  1495,  1496,  1497,  1498,  1567,  1568,  1569,  1570
  1823,  1824,  1825,  1826,  2303,  2304,  2305,  2306,  2307,  2308,  2309,  2310,  2311,  2312,  2313,  2314
  2315,  2316,  2317,  2318,  2319,  2320,  2321,  2322,  2323,  2324,  2325,  2326,  2327,  2328,  2329,  2330
  2399,  2400,  2401,  2402,  2471,  2472,  2473,  2474, 14024, 14028, 14029, 14038, 14044, 14046, 14049, 14050
 14067, 14071, 14072, 14082, 14090, 14092, 14093, 14103
** Region: (col_flange:Set-1), (Controls:EC-1)
*Elset, elset=column-1__I1
     1,     2,     3,     4,     5,     6,     7,     8,     9,    10,    11,    12,    13,    14,    15,    16
    17,    18,    19,    20,    21,    22,    23,    24,    25,    26,    27,    28,    29,    30,    31,    32
    33,    34,    35,    36,    37,    38,    39,    40,    41,    42,    43,    44,    45,    46,    47,    48
    49,    50,    51,    52,    53,    54,    55,    56,    57,    58,    59,    60,    61,    62,    63,    64
    65,    66,    67,    68,    69,    70,    71,    72,    73,    74,    75,    76,    77,    78,    79,    80
    81,    82,    83,    84,    85,    86,    87,    88,    89,    90,    91,    92,    93,    94,    95,    96
    97,    98,    99,   100,   101,   102,   103,   104,   105,   106,   107,   108,   109,   110,   111,   112
   113,   114,   115,   116,   117,   118,   119,   120,   121,   122,   123,   124,   125,   126,   127,   128
   129,   130,   131,   132,   133,   134,   135,   136,   137,   138,   139,   140,   141,   142,   143,   144
   145,   146,   147,   148,   149,   150,   151,   152,   153,   154,   155,   156,   157,   158,   159,   160
   161,   162,   163,   164,   165,   166,   167,   168,   169,   170,   171,   172,   173,   174,   175,   176
   177,   178,   179,   180,   181,   182,   183,   184,   185,   186,   187,   188,   189,   190,   191,   192
   193,   194,   195,   196,   197,   198,   199,   200,   201,   202,   203,   204,   205,   206,   207,   208
   209,   210,   211,   212,   213,   214,   215,   216,   217,   218,   219,   220,   221,   222,   223,   224
   225,   226,   227,   228,   229,   230,   231,   232,   233,   234,   235,   236,   237,   238,   239,   240
   241,   242,   243,   244,   245,   246,   247,   248,   249,   250,   251,   252,   253,   254,   255,   256
   257,   258,   259,   260,   261,   262,   263,   264,   265,   266,   267,   268,   269,   270,   271,   272
   273,   274,   275,   276,   277,   278,   279,   280,   281,   282,   283,   284,   285,   286,   287,   288
   289,   290,   291,   292,   293,   294,   295,   296,   297,   298,   299,   300,   301,   302,   303,   304
   305,   306,   307,   308,   309,   310,   311,   312,   313,   314,   315,   316,   317,   318,   319,   320
** ... 396 like lines cut
** Section: col_flange
*Shell Section, elset=column-1__I1, material=steel_sac-avg, controls=EC-1
40.9, 5
** Section: col_web
*Shell Section, elset=column-1_Set-2, material=steel_sac-avg, controls=EC-1
23.1, 5
** Region: (col_flange:Set-1), (Controls:Default)
*Elset, elset=column-1__I3
 14017, 14018, 14019, 14039, 14061, 14062, 14063, 14083, 14084, 14085
** Section: col_flange
*Shell Section, elset=column-1__I3, material=steel_sac-avg
40.9, 5
** ----------------------------------------------------------------
** 
** PART INSTANCE: beam-1
** 
*System
          0.,     -344.05,       5500.,          1.,     -344.05,       5500.
          0.,     -344.05,       5501.
*Node
  14417,       -152.5,  -444.049988,         950.
  14418,           0.,  -444.049988,         950.
  14419,           0.,  -444.049988,        3614.
  14420,       -152.5,  -444.049988,        3614.
  14421,           0.,   444.049988,         950.
  14422,           0.,   444.049988,        3614.
  14423,        152.5,  -444.049988,         200.
  14424,           0.,  -444.049988,         200.
  14425,           0.,  -444.049988,           0.
  14426,        152.5,  -444.049988,           0.
  14427,       -152.5,   444.049988,         950.
  14428,       -152.5,   444.049988,        3614.
  14429,        152.5,   444.049988,         200.
  14430,           0.,   444.049988,         200.
  14431,           0.,   444.049988,           0.
  14432,        152.5,   444.049988,           0.
  14433,           0.,   444.049988,        3962.
  14434,       -152.5,   444.049988,        3962.
  14435,        152.5,   444.049988,         950.
  14436,        152.5,   444.049988,        3614.
** ... 3082 like lines cut
*Element, type=S4R
14105, 14417, 14455, 15112, 14562
14106, 14455, 14456, 15113, 15112
14107, 14456, 14418, 14457, 15113
14108, 14562, 15112, 15114, 14561
14109, 15112, 15113, 15115, 15114
14110, 15113, 14457, 14458, 15115
14111, 14561, 15114, 15116, 14560
14112, 15114, 15115, 15117, 15116
14113, 15115, 14458, 14459, 15117
14114, 14560, 15116, 15118, 14559
14115, 15116, 15117, 15119, 15118
14116, 15117, 14459, 14460, 15119
14117, 14559, 15118, 15120, 14558
14118, 15118, 15119, 15121, 15120
14119, 15119, 14460, 14461, 15121
14120, 14558, 15120, 15122, 14557
14121, 15120, 15121, 15123, 15122
14122, 15121, 14461, 14462, 15123
14123, 14557, 15122, 15124, 14556
14124, 15122, 15123, 15125, 15124
** ... 2948 like lines cut
*Element, type=S3
16025, 16732, 16724, 16714
16026, 16641, 14972, 14973
16027, 16718, 16684, 16670
16028, 16719, 16717, 16678
16156, 16828, 16792, 16795
16157, 16829, 16820, 16812
16158, 16752, 15028, 15029
16159, 16815, 16781, 16767
16160, 16811, 16769, 16763
16161, 16816, 16814, 16775
16287, 16926, 16890, 16897
16288, 16913, 16894, 16903
16289, 16898, 16842, 16841
16290, 16924, 16857, 16915
16419, 17022, 17000, 16954
16420, 16996, 16947, 16948
16421, 16995, 17024, 16986
16422, 17025, 16987, 17004
*Nset, nset=beam-1_Set-1
14417,14418,14419,14420,14421,14422,14423,14424,14425,14426,14427,14428,14429,14430,14431,14432
14433,14434,14435,14436,14437,14438,14439,14440,14441,14442,14443,14444,14445,14446,14447,14448
14449,14450,14451,14452,14453,14454,14455,14456,14457,14458,14459,14460,14461,14462,14463,14464
14465,14466,14467,14468,14469,14470,14471,14472,14473,14474,14475,14476,14477,14478,14479,14480
14481,14482,14483,14484,14485,14486,14487,14488,14489,14490,14491,14492,14493,14494,14495,14496
14497,14498,14499,14500,14501,14502,14503,14504,14505,14506,14507,14508,14509,14510,14511,14512
14513,14514,14515,14516,14517,14518,14519,14520,14521,14522,14523,14524,14525,14526,14527,14528
14529,14530,14531,14532,14533,14534,14535,14536,14537,14538,14539,14540,14541,14542,14543,14544
14545,14546,14547,14548,14549,14550,14551,14552,14553,14554,14555,14556,14557,14558,14559,14560
14561,14562,14580,14581,14582,14583,14584,14585,14586,14587,14588,14589,14590,14591,14592,14593
14594,14595,14596,14597,14598,14599,14600,14601,14602,14603,14604,14605,14606,14607,14608,14609
14610,14611,14612,14613,14614,14615,14616,14617,14618,14619,14620,14621,14622,14623,14624,14625
14626,14627,14628,14629,14630,14631,14649,14650,14651,14652,14653,14654,14655,14656,14657,14658
14659,14660,14661,14662,14663,14664,14665,14666,14667,14668,14669,14670,14671,14672,14673,14674
14675,14676,14677,14678,14679,14680,14681,14682,14683,14684,14685,14686,14687,14688,14689,14690
14691,14692,14693,14694,14695,14696,14697,14698,14699,14700,14701,14702,14703,14704,14705,14706
14707,14708,14709,14710,14711,14712,14713,14714,14715,14716,14717,14718,14719,14720,14721,14722
14723,14724,14725,14726,14727,14728,14729,14730,14731,14732,14733,14734,14735,14736,14737,14738
14739,14740,14741,14742,14743,14744,14745,14746,14747,14748,14749,14750,14751,14752,14753,14754
14755,14756,14757,14758,14759,14760,14761,14762,14763,14764,14765,14766,14767,14768,14769,14770
** ... 73 like lines cut
*Elset, elset=beam-1_Set-1
14105,14106,14107,14108,14109,14110,14111,14112,14113,14114,14115,14116,14117,14118,14119,14120
14121,14122,14123,14124,14125,14126,14127,14128,14129,14130,14131,14132,14133,14134,14135,14136
14137,14138,14139,14140,14141,14142,14143,14144,14145,14146,14147,14148,14149,14150,14151,14152
14153,14154,14155,14156,14157,14158,14159,14160,14161,14162,14163,14164,14165,14166,14167,14168
14169,14170,14171,14172,14173,14174,14175,14176,14177,14178,14179,14180,14181,14182,14183,14184
14185,14186,14187,14188,14189,14190,14191,14192,14193,14194,14195,14196,14197,14198,14199,14200
14201,14202,14203,14204,14205,14206,14207,14208,14209,14210,14211,14212,14213,14214,14215,14216
14217,14218,14219,14220,14221,14222,14223,14224,14225,14226,14227,14228,14229,14230,14231,14232
14233,14234,14235,14236,14237,14238,14239,14240,14241,14242,14243,14244,14245,14246,14247,14248
14249,14250,14251,14252,14253,14254,14255,14256,14257,14258,14259,14260,14261,14262,14263,15218
15219,15220,15221,15222,15223,15224,15225,15226,15227,15228,15229,15230,15231,15232,15233,15234
15235,15236,15237,15238,15239,15240,15241,15242,15243,15244,15245,15246,15247,15248,15249,15250
15251,15252,15253,15254,15255,15256,15257,15258,15259,15260,15261,15262,15263,15264,15265,15266
15267,15268,15269,15270,15271,15272,15273,15274,15275,15276,15277,15278,15279,15280,15281,15282
15283,15284,15285,15286,15287,15288,15289,15290,15291,15292,15293,15294,15295,15296,15297,15298
15299,15300,15301,15302,15303,15304,15305,15306,15307,15308,15309,15310,15311,15312,15313,15314
15315,15316,15317,15318,15319,15320,15321,15322,15323,15324,15325,15326,15327,15328,15329,15330
15331,15332,15333,15334,15335,15336,15337,15338,15339,15340,15341,15342,15343,15344,15345,15346
15347,15348,15349,15350,15351,15352,15353,15354,15355,15356,15357,15358,15359,15360,15361,15362
15363,15364,15365,15366,15367,15368,15369,15370,15371,15372,15373,15374,15375,15376,15377,15378
** ... 61 like lines cut
*Nset, nset=beam-1_Set-2
14418,14419,14421,14422,14424,14425,14430,14431,14433,14437,14457,14458,14459,14460,14461,14462
14463,14464,14465,14466,14467,14468,14469,14470,14471,14472,14473,14474,14475,14476,14477,14478
14479,14480,14481,14482,14483,14484,14485,14486,14487,14488,14489,14490,14491,14492,14493,14494
14495,14496,14497,14498,14499,14500,14501,14502,14503,14504,14505,14506,14507,14508,14563,14564
14565,14566,14567,14568,14569,14570,14571,14572,14573,14574,14575,14576,14577,14578,14579,14580
14581,14582,14583,14584,14585,14586,14587,14588,14589,14590,14591,14592,14593,14594,14595,14596
14597,14598,14599,14600,14601,14602,14603,14604,14605,14606,14607,14608,14609,14610,14611,14612
14613,14614,14615,14616,14617,14618,14619,14620,14621,14622,14623,14624,14625,14626,14627,14628
14629,14630,14631,14632,14633,14634,14635,14636,14637,14638,14639,14640,14641,14642,14643,14644
14645,14646,14647,14648,14651,14652,14653,14717,14718,14719,14725,14726,14727,14728,14729,14730
14795,14796,14797,14798,14799,14800,14801,14802,14803,14804,14805,14806,14807,14808,14809,14810
14811,14812,14813,14814,14815,14816,14817,14818,14819,14820,14821,14822,14823,14824,14825,14826
14827,14828,14829,14830,14831,14832,14833,14834,14922,14923,14924,14925,14926,14927,14928,14929
14930,14931,14932,14933,14934,14935,14936,14937,14938,14946,14947,14948,14949,14950,14951,14952
14953,14954,14955,14956,14957,14958,14959,14960,14961,14962,14963,14964,14965,14966,14967,14968
14969,14970,14971,14972,14973,14974,15002,15003,15004,15005,15006,15007,15008,15009,15010,15011
15012,15013,15014,15015,15016,15017,15018,15019,15020,15021,15022,15023,15024,15025,15026,15027
15028,15029,15030,15216,15217,15218,15219,15220,15221,15222,15223,15224,15225,15226,15227,15228
15229,15230,15231,15232,15233,15234,15235,15236,15237,15238,15239,15240,15241,15242,15243,15244
15245,15246,15247,15248,15249,15250,15251,15252,15253,15254,15255,15256,15257,15258,15259,15260
** ... 93 like lines cut
*Elset, elset=beam-1_Set-2
14264,14265,14266,14267,14268,14269,14270,14271,14272,14273,14274,14275,14276,14277,14278,14279
14280,14281,14282,14283,14284,14285,14286,14287,14288,14289,14290,14291,14292,14293,14294,14295
14296,14297,14298,14299,14300,14301,14302,14303,14304,14305,14306,14307,14308,14309,14310,14311
14312,14313,14314,14315,14316,14317,14318,14319,14320,14321,14322,14323,14324,14325,14326,14327
14328,14329,14330,14331,14332,14333,14334,14335,14336,14337,14338,14339,14340,14341,14342,14343
14344,14345,14346,14347,14348,14349,14350,14351,14352,14353,14354,14355,14356,14357,14358,14359
14360,14361,14362,14363,14364,14365,14366,14367,14368,14369,14370,14371,14372,14373,14374,14375
14376,14377,14378,14379,14380,14381,14382,14383,14384,14385,14386,14387,14388,14389,14390,14391
14392,14393,14394,14395,14396,14397,14398,14399,14400,14401,14402,14403,14404,14405,14406,14407
14408,14409,14410,14411,14412,14413,14414,14415,14416,14417,14418,14419,14420,14421,14422,14423
14424,14425,14426,14427,14428,14429,14430,14431,14432,14433,14434,14435,14436,14437,14438,14439
14440,14441,14442,14443,14444,14445,14446,14447,14448,14449,14450,14451,14452,14453,14454,14455
14456,14457,14458,14459,14460,14461,14462,14463,14464,14465,14466,14467,14468,14469,14470,14471
14472,14473,14474,14475,14476,14477,14478,14479,14480,14481,14482,14483,14484,14485,14486,14487
14488,14489,14490,14491,14492,14493,14494,14495,14496,14497,14498,14499,14500,14501,14502,14503
14504,14505,14506,14507,14508,14509,14510,14511,14512,14513,14514,14515,14516,14517,14518,14519
14520,14521,14522,14523,14524,14525,14526,14527,14528,14529,14530,14531,14532,14533,14534,14535
14536,14537,14538,14539,14540,14541,14542,14543,14544,14545,14546,14547,14548,14549,14550,14551
14552,14553,14554,14555,14556,14557,14558,14559,14560,14561,14562,14563,14564,14565,14566,14567
14568,14569,14570,14571,14572,14573,14574,14575,14576,14577,14578,14579,14580,14581,14582,14583
** ... 86 like lines cut
*Nset, nset=beam-1_beam_col_interf
14425,14426,14431,14432,14444,14446,14654,14655,14720,14721,14812,14813,14814,14815,14816,14817
14818,14819,14820,14821,14822,14823,14824,14825,14826,14827,14828,14920,14921,14944,14945
*Elset, elset=beam-1_beam_col_interf
15227,15228,15229,15398,15399,15400,15635,15636,15637,15638,15639,15640,15641,15642,15643,15644
15645,15646,15647,15648,15649,15650,15651,15652,15884,15885,15886,16022,16023,16024
*Nset, nset=beam-1_all_nodes, generate
14417, 17518,     1
*Elset, elset=beam-1_all_nodes, generate
14105, 17090,     1
** Section: beam_flange
*Shell Section, elset=beam-1_Set-1, material=steel_sac-avg
23.9, 5
** Section: beam_web
*Shell Section, elset=beam-1_Set-2, material=steel_sac-avg
15.9, 5
** ----------------------------------------------------------------
** 
** PART INSTANCE: beam-2
** 
*System
          0.,      344.05,       5500.,          1.,      344.05,       5500.
          0.,      344.05,       5499.
*Node
  17519,       -152.5,  -444.049988,         950.
  17520,           0.,  -444.049988,         950.
  17521,           0.,  -444.049988,        3614.
  17522,       -152.5,  -444.049988,        3614.
  17523,           0.,   444.049988,         950.
  17524,           0.,   444.049988,        3614.
  17525,        152.5,  -444.049988,         200.
  17526,           0.,  -444.049988,         200.
  17527,           0.,  -444.049988,           0.
  17528,        152.5,  -444.049988,           0.
  17529,       -152.5,   444.049988,         950.
  17530,       -152.5,   444.049988,        3614.
  17531,        152.5,   444.049988,         200.
  17532,           0.,   444.049988,         200.
  17533,           0.,   444.049988,           0.
  17534,        152.5,   444.049988,           0.
  17535,           0.,   444.049988,        3962.
  17536,       -152.5,   444.049988,        3962.
  17537,        152.5,   444.049988,         950.
  17538,        152.5,   444.049988,        3614.
** ... 3082 like lines cut
*Element, type=S4R
17091, 17519, 17557, 18214, 17664
17092, 17557, 17558, 18215, 18214
17093, 17558, 17520, 17559, 18215
17094, 17664, 18214, 18216, 17663
17095, 18214, 18215, 18217, 18216
17096, 18215, 17559, 17560, 18217
17097, 17663, 18216, 18218, 17662
17098, 18216, 18217, 18219, 18218
17099, 18217, 17560, 17561, 18219
17100, 17662, 18218, 18220, 17661
17101, 18218, 18219, 18221, 18220
17102, 18219, 17561, 17562, 18221
17103, 17661, 18220, 18222, 17660
17104, 18220, 18221, 18223, 18222
17105, 18221, 17562, 17563, 18223
17106, 17660, 18222, 18224, 17659
17107, 18222, 18223, 18225, 18224
17108, 18223, 17563, 17564, 18225
17109, 17659, 18224, 18226, 17658
17110, 18224, 18225, 18227, 18226
** ... 2948 like lines cut
*Element, type=S3
19011, 19834, 19826, 19816
19012, 19743, 18074, 18075
19013, 19820, 19786, 19772
19014, 19821, 19819, 19780
19142, 19930, 19894, 19897
19143, 19931, 19922, 19914
19144, 19854, 18130, 18131
19145, 19917, 19883, 19869
19146, 19913, 19871, 19865
19147, 19918, 19916, 19877
19273, 20028, 19992, 19999
19274, 20015, 19996, 20005
19275, 20000, 19944, 19943
19276, 20026, 19959, 20017
19405, 20124, 20102, 20056
19406, 20098, 20049, 20050
19407, 20097, 20126, 20088
19408, 20127, 20089, 20106
*Nset, nset=beam-2_Set-1
17519,17520,17521,17522,17523,17524,17525,17526,17527,17528,17529,17530,17531,17532,17533,17534
17535,17536,17537,17538,17539,17540,17541,17542,17543,17544,17545,17546,17547,17548,17549,17550
17551,17552,17553,17554,17555,17556,17557,17558,17559,17560,17561,17562,17563,17564,17565,17566
17567,17568,17569,17570,17571,17572,17573,17574,17575,17576,17577,17578,17579,17580,17581,17582
17583,17584,17585,17586,17587,17588,17589,17590,17591,17592,17593,17594,17595,17596,17597,17598
17599,17600,17601,17602,17603,17604,17605,17606,17607,17608,17609,17610,17611,17612,17613,17614
17615,17616,17617,17618,17619,17620,17621,17622,17623,17624,17625,17626,17627,17628,17629,17630
17631,17632,17633,17634,17635,17636,17637,17638,17639,17640,17641,17642,17643,17644,17645,17646
17647,17648,17649,17650,17651,17652,17653,17654,17655,17656,17657,17658,17659,17660,17661,17662
17663,17664,17682,17683,17684,17685,17686,17687,17688,17689,17690,17691,17692,17693,17694,17695
17696,17697,17698,17699,17700,17701,17702,17703,17704,17705,17706,17707,17708,17709,17710,17711
17712,17713,17714,17715,17716,17717,17718,17719,17720,17721,17722,17723,17724,17725,17726,17727
17728,17729,17730,17731,17732,17733,17751,17752,17753,17754,17755,17756,17757,17758,17759,17760
17761,17762,17763,17764,17765,17766,17767,17768,17769,17770,17771,17772,17773,17774,17775,17776
17777,17778,17779,17780,17781,17782,17783,17784,17785,17786,17787,17788,17789,17790,17791,17792
17793,17794,17795,17796,17797,17798,17799,17800,17801,17802,17803,17804,17805,17806,17807,17808
17809,17810,17811,17812,17813,17814,17815,17816,17817,17818,17819,17820,17821,17822,17823,17824
17825,17826,17827,17828,17829,17830,17831,17832,17833,17834,17835,17836,17837,17838,17839,17840
17841,17842,17843,17844,17845,17846,17847,17848,17849,17850,17851,17852,17853,17854,17855,17856
17857,17858,17859,17860,17861,17862,17863,17864,17865,17866,17867,17868,17869,17870,17871,17872
** ... 73 like lines cut
*Elset, elset=beam-2_Set-1
17091,17092,17093,17094,17095,17096,17097,17098,17099,17100,17101,17102,17103,17104,17105,17106
17107,17108,17109,17110,17111,17112,17113,17114,17115,17116,17117,17118,17119,17120,17121,17122
17123,17124,17125,17126,17127,17128,17129,17130,17131,17132,17133,17134,17135,17136,17137,17138
17139,17140,17141,17142,17143,17144,17145,17146,17147,17148,17149,17150,17151,17152,17153,17154
17155,17156,17157,17158,17159,17160,17161,17162,17163,17164,17165,17166,17167,17168,17169,17170
17171,17172,17173,17174,17175,17176,17177,17178,17179,17180,17181,17182,17183,17184,17185,17186
17187,17188,17189,17190,17191,17192,17193,17194,17195,17196,17197,17198,17199,17200,17201,17202
17203,17204,17205,17206,17207,17208,17209,17210,17211,17212,17213,17214,17215,17216,17217,17218
17219,17220,17221,17222,17223,17224,17225,17226,17227,17228,17229,17230,17231,17232,17233,17234
17235,17236,17237,17238,17239,17240,17241,17242,17243,17244,17245,17246,17247,17248,17249,18204
18205,18206,18207,18208,18209,18210,18211,18212,18213,18214,18215,18216,18217,18218,18219,18220
18221,18222,18223,18224,18225,18226,18227,18228,18229,18230,18231,18232,18233,18234,18235,18236
18237,18238,18239,18240,18241,18242,18243,18244,18245,18246,18247,18248,18249,18250,18251,18252
18253,18254,18255,18256,18257,18258,18259,18260,18261,18262,18263,18264,18265,18266,18267,18268
18269,18270,18271,18272,18273,18274,18275,18276,18277,18278,18279,18280,18281,18282,18283,18284
18285,18286,18287,18288,18289,18290,18291,18292,18293,18294,18295,18296,18297,18298,18299,18300
18301,18302,18303,18304,18305,18306,18307,18308,18309,18310,18311,18312,18313,18314,18315,18316
18317,18318,18319,18320,18321,18322,18323,18324,18325,18326,18327,18328,18329,18330,18331,18332
18333,18334,18335,18336,18337,18338,18339,18340,18341,18342,18343,18344,18345,18346,18347,18348
18349,18350,18351,18352,18353,18354,18355,18356,18357,18358,18359,18360,18361,18362,18363,18364
** ... 61 like lines cut
*Nset, nset=beam-2_Set-2
17520,17521,17523,17524,17526,17527,17532,17533,17535,17539,17559,17560,17561,17562,17563,17564
17565,17566,17567,17568,17569,17570,17571,17572,17573,17574,17575,17576,17577,17578,17579,17580
17581,17582,17583,17584,17585,17586,17587,17588,17589,17590,17591,17592,17593,17594,17595,17596
17597,17598,17599,17600,17601,17602,17603,17604,17605,17606,17607,17608,17609,17610,17665,17666
17667,17668,17669,17670,17671,17672,17673,17674,17675,17676,17677,17678,17679,17680,17681,17682
17683,17684,17685,17686,17687,17688,17689,17690,17691,17692,17693,17694,17695,17696,17697,17698
17699,17700,17701,17702,17703,17704,17705,17706,17707,17708,17709,17710,17711,17712,17713,17714
17715,17716,17717,17718,17719,17720,17721,17722,17723,17724,17725,17726,17727,17728,17729,17730
17731,17732,17733,17734,17735,17736,17737,17738,17739,17740,17741,17742,17743,17744,17745,17746
17747,17748,17749,17750,17753,17754,17755,17819,17820,17821,17827,17828,17829,17830,17831,17832
17897,17898,17899,17900,17901,17902,17903,17904,17905,17906,17907,17908,17909,17910,17911,17912
17913,17914,17915,17916,17917,17918,17919,17920,17921,17922,17923,17924,17925,17926,17927,17928
17929,17930,17931,17932,17933,17934,17935,17936,18024,18025,18026,18027,18028,18029,18030,18031
18032,18033,18034,18035,18036,18037,18038,18039,18040,18048,18049,18050,18051,18052,18053,18054
18055,18056,18057,18058,18059,18060,18061,18062,18063,18064,18065,18066,18067,18068,18069,18070
18071,18072,18073,18074,18075,18076,18104,18105,18106,18107,18108,18109,18110,18111,18112,18113
18114,18115,18116,18117,18118,18119,18120,18121,18122,18123,18124,18125,18126,18127,18128,18129
18130,18131,18132,18318,18319,18320,18321,18322,18323,18324,18325,18326,18327,18328,18329,18330
18331,18332,18333,18334,18335,18336,18337,18338,18339,18340,18341,18342,18343,18344,18345,18346
18347,18348,18349,18350,18351,18352,18353,18354,18355,18356,18357,18358,18359,18360,18361,18362
** ... 93 like lines cut
*Elset, elset=beam-2_Set-2
17250,17251,17252,17253,17254,17255,17256,17257,17258,17259,17260,17261,17262,17263,17264,17265
17266,17267,17268,17269,17270,17271,17272,17273,17274,17275,17276,17277,17278,17279,17280,17281
17282,17283,17284,17285,17286,17287,17288,17289,17290,17291,17292,17293,17294,17295,17296,17297
17298,17299,17300,17301,17302,17303,17304,17305,17306,17307,17308,17309,17310,17311,17312,17313
17314,17315,17316,17317,17318,17319,17320,17321,17322,17323,17324,17325,17326,17327,17328,17329
17330,17331,17332,17333,17334,17335,17336,17337,17338,17339,17340,17341,17342,17343,17344,17345
17346,17347,17348,17349,17350,17351,17352,17353,17354,17355,17356,17357,17358,17359,17360,17361
17362,17363,17364,17365,17366,17367,17368,17369,17370,17371,17372,17373,17374,17375,17376,17377
17378,17379,17380,17381,17382,17383,17384,17385,17386,17387,17388,17389,17390,17391,17392,17393
17394,17395,17396,17397,17398,17399,17400,17401,17402,17403,17404,17405,17406,17407,17408,17409
17410,17411,17412,17413,17414,17415,17416,17417,17418,17419,17420,17421,17422,17423,17424,17425
17426,17427,17428,17429,17430,17431,17432,17433,17434,17435,17436,17437,17438,17439,17440,17441
17442,17443,17444,17445,17446,17447,17448,17449,17450,17451,17452,17453,17454,17455,17456,17457
17458,17459,17460,17461,17462,17463,17464,17465,17466,17467,17468,17469,17470,17471,17472,17473
17474,17475,17476,17477,17478,17479,17480,17481,17482,17483,17484,17485,17486,17487,17488,17489
17490,17491,17492,17493,17494,17495,17496,17497,17498,17499,17500,17501,17502,17503,17504,17505
17506,17507,17508,17509,17510,17511,17512,17513,17514,17515,17516,17517,17518,17519,17520,17521
17522,17523,17524,17525,17526,17527,17528,17529,17530,17531,17532,17533,17534,17535,17536,17537
17538,17539,17540,17541,17542,17543,17544,17545,17546,17547,17548,17549,17550,17551,17552,17553
17554,17555,17556,17557,17558,17559,17560,17561,17562,17563,17564,17565,17566,17567,17568,17569
** ... 86 like lines cut
*Nset, nset=beam-2_beam_col_interf
17527,17528,17533,17534,17546,17548,17756,17757,17822,17823,17914,17915,17916,17917,17918,17919
17920,17921,17922,17923,17924,17925,17926,17927,17928,17929,17930,18022,18023,18046,18047
*Elset, elset=beam-2_beam_col_interf
18213,18214,18215,18384,18385,18386,18621,18622,18623,18624,18625,18626,18627,18628,18629,18630
18631,18632,18633,18634,18635,18636,18637,18638,18870,18871,18872,19008,19009,19010
*Nset, nset=beam-2_all_nodes, generate
17519, 20620,     1
*Elset, elset=beam-2_all_nodes, generate
17091, 20076,     1
** Section: beam_flange
*Shell Section, elset=beam-2_Set-1, material=steel_sac-avg
23.9, 5
** Section: beam_web
*Shell Section, elset=beam-2_Set-2, material=steel_sac-avg
15.9, 5
** ----------------------------------------------------------------
** 
** PART INSTANCE: cont_plate-1
** 
*System
          0.,     -344.05,     5055.95,          1.,     -344.05,     5055.95
          0.,     -344.05,     5054.95
*Node
  20621,         150.,           0.,   688.099976
  20622,         125.,           0.,   688.099976
  20623,         100.,           0.,   688.099976
  20624,          75.,           0.,   688.099976
  20625,          50.,           0.,   688.099976
  20626,          25.,           0.,   688.099976
  20627,           0.,           0.,   688.099976
  20628,         150.,           0.,   663.525024
  20629,         125.,           0.,   663.525024
  20630,         100.,           0.,   663.525024
  20631,          75.,           0.,   663.525024
  20632,          50.,           0.,   663.525024
  20633,          25.,           0.,   663.525024
  20634,           0.,           0.,   663.525024
  20635,         150.,           0.,   638.950012
  20636,         125.,           0.,   638.950012
  20637,         100.,           0.,   638.950012
  20638,          75.,           0.,   638.950012
  20639,          50.,           0.,   638.950012
  20640,          25.,           0.,   638.950012
** ... 183 like lines cut
*Element, type=S4R
20077, 20621, 20622, 20629, 20628
20078, 20622, 20623, 20630, 20629
20079, 20623, 20624, 20631, 20630
20080, 20624, 20625, 20632, 20631
20081, 20625, 20626, 20633, 20632
20082, 20626, 20627, 20634, 20633
20083, 20628, 20629, 20636, 20635
20084, 20629, 20630, 20637, 20636
20085, 20630, 20631, 20638, 20637
20086, 20631, 20632, 20639, 20638
20087, 20632, 20633, 20640, 20639
20088, 20633, 20634, 20641, 20640
20089, 20635, 20636, 20643, 20642
20090, 20636, 20637, 20644, 20643
20091, 20637, 20638, 20645, 20644
20092, 20638, 20639, 20646, 20645
20093, 20639, 20640, 20647, 20646
20094, 20640, 20641, 20648, 20647
20095, 20642, 20643, 20650, 20649
20096, 20643, 20644, 20651, 20650
** ... 148 like lines cut
*Nset, nset=cont_plate-1_Set-1, generate
20621, 20823,    1
*Elset, elset=cont_plate-1_Set-1, generate
20077, 20244,    1
*Nset, nset=cont_plate-1_out_edges
20621,20622,20623,20624,20625,20626,20627,20628,20634,20635,20641,20642,20648,20649,20655,20656
20662,20663,20669,20670,20676,20677,20683,20684,20690,20691,20697,20698,20704,20705,20711,20712
20718,20719,20725,20726,20732,20733,20739,20740,20746,20747,20753,20754,20760,20761,20767,20768
20774,20775,20781,20782,20788,20789,20795,20796,20802,20803,20809,20810,20816,20817,20818,20819
20820,20821,20822,20823
*Elset, elset=cont_plate-1_out_edges
20077,20078,20079,20080,20081,20082,20083,20088,20089,20094,20095,20100,20101,20106,20107,20112
20113,20118,20119,20124,20125,20130,20131,20136,20137,20142,20143,20148,20149,20154,20155,20160
20161,20166,20167,20172,20173,20178,20179,20184,20185,20190,20191,20196,20197,20202,20203,20208
20209,20214,20215,20220,20221,20226,20227,20232,20233,20238,20239,20240,20241,20242,20243,20244
** Section: cont_plate
*Shell Section, elset=cont_plate-1_Set-1, material=steel_sac-avg
19.05, 5
** ----------------------------------------------------------------
** 
** PART INSTANCE: cont_plate-1-lin-1-2
** 
*System
          0.,     -344.05,      5944.1,          1.,     -344.05,      5944.1
          0.,     -344.05,      5943.1
*Node
  20824,         150.,           0.,   688.099976
  20825,         125.,           0.,   688.099976
  20826,         100.,           0.,   688.099976
  20827,          75.,           0.,   688.099976
  20828,          50.,           0.,   688.099976
  20829,          25.,           0.,   688.099976
  20830,           0.,           0.,   688.099976
  20831,         150.,           0.,   663.525024
  20832,         125.,           0.,   663.525024
  20833,         100.,           0.,   663.525024
  20834,          75.,           0.,   663.525024
  20835,          50.,           0.,   663.525024
  20836,          25.,           0.,   663.525024
  20837,           0.,           0.,   663.525024
  20838,         150.,           0.,   638.950012
  20839,         125.,           0.,   638.950012
  20840,         100.,           0.,   638.950012
  20841,          75.,           0.,   638.950012
  20842,          50.,           0.,   638.950012
  20843,          25.,           0.,   638.950012
** ... 183 like lines cut
*Element, type=S4R
20245, 20824, 20825, 20832, 20831
20246, 20825, 20826, 20833, 20832
20247, 20826, 20827, 20834, 20833
20248, 20827, 20828, 20835, 20834
20249, 20828, 20829, 20836, 20835
20250, 20829, 20830, 20837, 20836
20251, 20831, 20832, 20839, 20838
20252, 20832, 20833, 20840, 20839
20253, 20833, 20834, 20841, 20840
20254, 20834, 20835, 20842, 20841
20255, 20835, 20836, 20843, 20842
20256, 20836, 20837, 20844, 20843
20257, 20838, 20839, 20846, 20845
20258, 20839, 20840, 20847, 20846
20259, 20840, 20841, 20848, 20847
20260, 20841, 20842, 20849, 20848
20261, 20842, 20843, 20850, 20849
20262, 20843, 20844, 20851, 20850
20263, 20845, 20846, 20853, 20852
20264, 20846, 20847, 20854, 20853
** ... 148 like lines cut
*Nset, nset=cont_plate-1-lin-1-2_Set-1, generate
20824, 21026,    1
*Elset, elset=cont_plate-1-lin-1-2_Set-1, generate
20245, 20412,    1
*Nset, nset=cont_plate-1-lin-1-2_out_edges
20824,20825,20826,20827,20828,20829,20830,20831,20837,20838,20844,20845,20851,20852,20858,20859
20865,20866,20872,20873,20879,20880,20886,20887,20893,20894,20900,20901,20907,20908,20914,20915
20921,20922,20928,20929,20935,20936,20942,20943,20949,20950,20956,20957,20963,20964,20970,20971
20977,20978,20984,20985,20991,20992,20998,20999,21005,21006,21012,21013,21019,21020,21021,21022
21023,21024,21025,21026
*Elset, elset=cont_plate-1-lin-1-2_out_edges
20245,20246,20247,20248,20249,20250,20251,20256,20257,20262,20263,20268,20269,20274,20275,20280
20281,20286,20287,20292,20293,20298,20299,20304,20305,20310,20311,20316,20317,20322,20323,20328
20329,20334,20335,20340,20341,20346,20347,20352,20353,20358,20359,20364,20365,20370,20371,20376
20377,20382,20383,20388,20389,20394,20395,20400,20401,20406,20407,20408,20409,20410,20411,20412
** Section: cont_plate
*Shell Section, elset=cont_plate-1-lin-1-2_Set-1, material=steel_sac-avg
19.05, 5
** ----------------------------------------------------------------
** 
** PART INSTANCE: cont_plate-1-lin-2-1
** 
*System
       -150.,     -344.05,     5055.95,       -149.,     -344.05,     5055.95
       -150.,     -344.05,     5054.95
*Node
  21027,         150.,           0.,   688.099976
  21028,         125.,           0.,   688.099976
  21029,         100.,           0.,   688.099976
  21030,          75.,           0.,   688.099976
  21031,          50.,           0.,   688.099976
  21032,          25.,           0.,   688.099976
  21033,           0.,           0.,   688.099976
  21034,         150.,           0.,   663.525024
  21035,         125.,           0.,   663.525024
  21036,         100.,           0.,   663.525024
  21037,          75.,           0.,   663.525024
  21038,          50.,           0.,   663.525024
  21039,          25.,           0.,   663.525024
  21040,           0.,           0.,   663.525024
  21041,         150.,           0.,   638.950012
  21042,         125.,           0.,   638.950012
  21043,         100.,           0.,   638.950012
  21044,          75.,           0.,   638.950012
  21045,          50.,           0.,   638.950012
  21046,          25.,           0.,   638.950012
** ... 183 like lines cut
*Element, type=S4R
20413, 21027, 21028, 21035, 21034
20414, 21028, 21029, 21036, 21035
20415, 21029, 21030, 21037, 21036
20416, 21030, 21031, 21038, 21037
20417, 21031, 21032, 21039, 21038
20418, 21032, 21033, 21040, 21039
20419, 21034, 21035, 21042, 21041
20420, 21035, 21036, 21043, 21042
20421, 21036, 21037, 21044, 21043
20422, 21037, 21038, 21045, 21044
20423, 21038, 21039, 21046, 21045
20424, 21039, 21040, 21047, 21046
20425, 21041, 21042, 21049, 21048
20426, 21042, 21043, 21050, 21049
20427, 21043, 21044, 21051, 21050
20428, 21044, 21045, 21052, 21051
20429, 21045, 21046, 21053, 21052
20430, 21046, 21047, 21054, 21053
20431, 21048, 21049, 21056, 21055
20432, 21049, 21050, 21057, 21056
** ... 148 like lines cut
*Nset, nset=cont_plate-1-lin-2-1_Set-1, generate
21027, 21229,    1
*Elset, elset=cont_plate-1-lin-2-1_Set-1, generate
20413, 20580,    1
*Nset, nset=cont_plate-1-lin-2-1_out_edges
21027,21028,21029,21030,21031,21032,21033,21034,21040,21041,21047,21048,21054,21055,21061,21062
21068,21069,21075,21076,21082,21083,21089,21090,21096,21097,21103,21104,21110,21111,21117,21118
21124,21125,21131,21132,21138,21139,21145,21146,21152,21153,21159,21160,21166,21167,21173,21174
21180,21181,21187,21188,21194,21195,21201,21202,21208,21209,21215,21216,21222,21223,21224,21225
21226,21227,21228,21229
*Elset, elset=cont_plate-1-lin-2-1_out_edges
20413,20414,20415,20416,20417,20418,20419,20424,20425,20430,20431,20436,20437,20442,20443,20448
20449,20454,20455,20460,20461,20466,20467,20472,20473,20478,20479,20484,20485,20490,20491,20496
20497,20502,20503,20508,20509,20514,20515,20520,20521,20526,20527,20532,20533,20538,20539,20544
20545,20550,20551,20556,20557,20562,20563,20568,20569,20574,20575,20576,20577,20578,20579,20580
** Section: cont_plate
*Shell Section, elset=cont_plate-1-lin-2-1_Set-1, material=steel_sac-avg
19.05, 5
** ----------------------------------------------------------------
** 
** PART INSTANCE: cont_plate-1-lin-2-2
** 
*System
       -150.,     -344.05,      5944.1,       -149.,     -344.05,      5944.1
       -150.,     -344.05,      5943.1
*Node
  21230,         150.,           0.,   688.099976
  21231,         125.,           0.,   688.099976
  21232,         100.,           0.,   688.099976
  21233,          75.,           0.,   688.099976
  21234,          50.,           0.,   688.099976
  21235,          25.,           0.,   688.099976
  21236,           0.,           0.,   688.099976
  21237,         150.,           0.,   663.525024
  21238,         125.,           0.,   663.525024
  21239,         100.,           0.,   663.525024
  21240,          75.,           0.,   663.525024
  21241,          50.,           0.,   663.525024
  21242,          25.,           0.,   663.525024
  21243,           0.,           0.,   663.525024
  21244,         150.,           0.,   638.950012
  21245,         125.,           0.,   638.950012
  21246,         100.,           0.,   638.950012
  21247,          75.,           0.,   638.950012
  21248,          50.,           0.,   638.950012
  21249,          25.,           0.,   638.950012
** ... 183 like lines cut
*Element, type=S4R
20581, 21230, 21231, 21238, 21237
20582, 21231, 21232, 21239, 21238
20583, 21232, 21233, 21240, 21239
20584, 21233, 21234, 21241, 21240
20585, 21234, 21235, 21242, 21241
20586, 21235, 21236, 21243, 21242
20587, 21237, 21238, 21245, 21244
20588, 21238, 21239, 21246, 21245
20589, 21239, 21240, 21247, 21246
20590, 21240, 21241, 21248, 21247
20591, 21241, 21242, 21249, 21248
20592, 21242, 21243, 21250, 21249
20593, 21244, 21245, 21252, 21251
20594, 21245, 21246, 21253, 21252
20595, 21246, 21247, 21254, 21253
20596, 21247, 21248, 21255, 21254
20597, 21248, 21249, 21256, 21255
20598, 21249, 21250, 21257, 21256
20599, 21251, 21252, 21259, 21258
20600, 21252, 21253, 21260, 21259
** ... 148 like lines cut
*Nset, nset=cont_plate-1-lin-2-2_Set-1, generate
21230, 21432,    1
*Elset, elset=cont_plate-1-lin-2-2_Set-1, generate
20581, 20748,    1
*Nset, nset=cont_plate-1-lin-2-2_out_edges
21230,21231,21232,21233,21234,21235,21236,21237,21243,21244,21250,21251,21257,21258,21264,21265
21271,21272,21278,21279,21285,21286,21292,21293,21299,21300,21306,21307,21313,21314,21320,21321
21327,21328,21334,21335,21341,21342,21348,21349,21355,21356,21362,21363,21369,21370,21376,21377
21383,21384,21390,21391,21397,21398,21404,21405,21411,21412,21418,21419,21425,21426,21427,21428
21429,21430,21431,21432
*Elset, elset=cont_plate-1-lin-2-2_out_edges
20581,20582,20583,20584,20585,20586,20587,20592,20593,20598,20599,20604,20605,20610,20611,20616
20617,20622,20623,20628,20629,20634,20635,20640,20641,20646,20647,20652,20653,20658,20659,20664
20665,20670,20671,20676,20677,20682,20683,20688,20689,20694,20695,20700,20701,20706,20707,20712
20713,20718,20719,20724,20725,20730,20731,20736,20737,20742,20743,20744,20745,20746,20747,20748
** Section: cont_plate
*Shell Section, elset=cont_plate-1-lin-2-2_Set-1, material=steel_sac-avg
19.05, 5
*System
*Node
  21433,           0.,           0.,        8250.
*Node
  21434,           0.,           0.,           0.
*Node
  21435,           0.,           0.,        8251.
*Element, type=CONN3D2
20749, 21435, 21433
*Connector Section, elset=Wire-1-Set-1, behavior=ConnSect-1
Hinge,
"Datum csys-2",
*Nset, nset=Wire-1-Set-1
21433,21435
*Elset, elset=Wire-1-Set-1
 20749,
*Nset, nset=beam_corner_nodes
14434,14438,14441,14442
*Nset, nset=beam_corner_nodes
17536,17540,17543,17544
*Nset, nset=col_bot_rp
21434,
*Nset, nset=col_top_rp
21433,
*Nset, nset=pz_corners
  8, 10, 11, 14, 16, 17, 18, 19
*Nset, nset=roller_nodes
14419,14420,14440,14509,14510,14897,14898
*Nset, nset=roller_nodes
17524,17530,17538,17763,17764,17895,17896
*Elset, elset=roller_nodes
14261,14262,14263,15653,15654,15655,15830,15831,15832,15854,15855,15856
*Elset, elset=roller_nodes
18372,18373,18374,18387,18388,18389,18564,18565,18566,18819,18820,18821
*Nset, nset=s_Set-5
14425,14426,14431,14432,14444,14446,14654,14655,14720,14721,14812,14813,14814,14815,14816,14817
14818,14819,14820,14821,14822,14823,14824,14825,14826,14827,14828,14920,14921,14944,14945
*Elset, elset=s_Set-5
15227,15228,15229,15398,15399,15400,15635,15636,15637,15638,15639,15640,15641,15642,15643,15644
15645,15646,15647,15648,15649,15650,15651,15652,15884,15885,15886,16022,16023,16024
*Nset, nset=t_Set-3
   12,   13,   23,   24,   25,   30,  585,  586,  587, 1221, 1222, 1223, 1314, 1315, 1316, 1526
 1527, 1528, 1529, 1530, 1531, 1532, 1533, 1534, 1535, 1536, 1537, 1538, 1539, 1540, 1541, 1542
 1543, 1544, 1545, 1546, 1547, 1548, 1549, 1550, 1551, 1552, 1807, 1808, 1809
*Elset, elset=t_Set-3
  1751,  1752,  1753,  1754,  9585,  9586,  9587,  9588,  9769,  9770,  9771,  9772, 12419, 12420, 12421, 12422
 12423, 12424, 12425, 12426, 12427, 12428, 12429, 12430, 12431, 12432, 12433, 12434, 12435, 12436, 12437, 12438
 12439, 12440, 12441, 12442, 12443, 12444, 12445, 12446, 14013, 14014, 14015, 14016
*Nset, nset=t_Set-4
    3,    4,   21,   22,   27,   29,  234,  235,  236,  237,  238,  239,  946,  947,  948,  949
  950,  951, 1149, 1150, 1151, 1152, 1153, 1154, 1155, 1156, 1157, 1158, 1159, 1160, 1161, 1162
 1163, 1164, 1165, 1166, 1167, 1168, 1169, 1170, 1171, 1172, 1173, 1174, 1175, 1520, 1521, 1522
 1523, 1524, 1525, 1756, 1757, 1758, 1759, 1760, 1761
*Elset, elset=t_Set-4
  1380,  1381,  1382,  1383,  1384,  1385,  1386,  3854,  3855,  3856,  3857,  3858,  3859,  3860,  9377,  9378
  9379,  9380,  9381,  9382,  9383,  9384,  9385,  9386,  9387,  9388,  9389,  9390,  9391,  9392,  9393,  9394
  9395,  9396,  9397,  9398,  9399,  9400,  9401,  9402,  9403,  9404, 11152, 11153, 11154, 11155, 11156, 11157
 11158, 13826, 13827, 13828, 13829, 13830, 13831, 13832
*Nset, nset=top_spring_node
21435,
*Elset, elset=_col_surfaces_SPOS, generate
     1,  14104,      1
*Surface, type=ELEMENT, name=col_surfaces
_col_surfaces_SPOS, SPOS
*Elset, elset=_m_Surf-1_SPOS
     1,     2,     3,     4,     5,     6,     7,     8,     9,    10,    11,    12,    13,    14,    15,    16
    17,    18,    19,    20,    21,    22,    23,    24,    25,    26,    27,    28,    29,    30,    31,    32
    33,    34,    35,    36,    37,    38,    39,    40,    41,    42,    43,    44,    45,    46,    47,    48
    49,    50,    51,    52,    53,    54,    55,    56,    57,    58,    59,    60,    61,    62,    63,    64
    65,    66,    67,    68,    69,    70,    71,    72,    73,    74,    75,    76,    77,    78,    79,    80
    81,    82,    83,    84,    85,    86,    87,    88,    89,    90,    91,    92,    93,    94,    95,    96
    97,    98,    99,   100,   101,   102,   103,   104,   105,   106,   107,   108,   109,   110,   111,   112
   113,   114,   115,   116,   117,   118,   119,   120,   121,   122,   123,   124,   125,   126,   127,   128
   129,   130,   131,   132,   133,   134,   135,   136,   137,   138,   139,   140,   141,   142,   143,   144
   145,   146,   147,   148,   149,   150,   151,   152,   153,   154,   155,   156,   157,   158,   159,   160
   161,   162,   163,   164,   165,   166,   167,   168,   169,   170,   171,   172,   173,   174,   175,   176
   177,   178,   179,   180,   181,   182,   183,   184,   185,   186,   187,   188,   189,   190,   191,   192
   193,   194,   195,   196,   197,   198,   199,   200,   201,   202,   203,   204,   205,   206,   207,   208
   209,   210,   211,   212,   213,   214,   215,   216,   217,   218,   219,   220,   221,   222,   223,   224
   225,   226,   227,   228,   229,   230,   231,   232,   233,   234,   235,   236,   237,   238,   239,   240
   241,   242,   243,   244,   245,   246,   247,   248,   249,   250,   251,   252,   253,   254,   255,   256
   257,   258,   259,   260,   261,   262,   263,   264,   265,   266,   267,   268,   269,   270,   271,   272
   273,   274,   275,   276,   277,   278,   279,   280,   281,   282,   283,   284,   285,   286,   287,   288
   289,   290,   291,   292,   293,   294,   295,   296,   297,   298,   299,   300,   301,   302,   303,   304
   305,   306,   307,   308,   309,   310,   311,   312,   313,   314,   315,   316,   317,   318,   319,   320
** ... 188 like lines cut
*Surface, type=ELEMENT, name=m_Surf-1
_m_Surf-1_SPOS, SPOS
*Elset, elset=_m_Surf-2_SNEG
  1499,  1500,  1501,  1502,  1503,  1504,  1505,  1506,  1507,  1508,  1509,  1510,  1511,  1512,  1513,  1514
  1515,  1516,  1517,  1518,  1519,  1520,  1521,  1522,  1523,  1524,  1525,  1526,  1527,  1528,  1529,  1530
  1531,  1532,  1533,  1534,  1535,  1536,  1537,  1538,  1539,  1540,  1541,  1542,  1543,  1544,  1545,  1546
  1547,  1548,  1549,  1550,  1551,  1552,  1553,  1554,  1555,  1556,  1557,  1558,  1559,  1560,  1561,  1562
  1563,  1564,  1565,  1566,  1567,  1568,  1569,  1570,  1571,  1572,  1573,  1574,  1575,  1576,  1577,  1578
  1579,  1580,  1581,  1582,  1583,  1584,  1585,  1586,  1587,  1588,  1589,  1590,  1591,  1592,  1593,  1594
  1595,  1596,  1597,  1598,  1599,  1600,  1601,  1602,  1603,  1604,  1605,  1606,  1607,  1608,  1609,  1610
  1611,  1612,  1613,  1614,  1615,  1616,  1617,  1618,  1619,  1620,  1621,  1622,  1623,  1624,  1625,  1626
  1627,  1628,  1629,  1630,  1631,  1632,  1633,  1634,  1635,  1636,  1637,  1638,  1639,  1640,  1641,  1642
  1643,  1644,  1645,  1646,  1647,  1648,  1649,  1650,  1651,  1652,  1653,  1654,  1655,  1656,  1657,  1658
  1659,  1660,  1661,  1662,  1663,  1664,  1665,  1666,  1667,  1668,  1669,  1670,  1671,  1672,  1673,  1674
  1675,  1676,  1677,  1678,  1679,  1680,  1681,  1682,  1683,  1684,  1685,  1686,  1687,  1688,  1689,  1690
  1691,  1692,  1693,  1694,  1695,  1696,  1697,  1698,  1699,  1700,  1701,  1702,  1703,  1704,  1705,  1706
  1707,  1708,  1709,  1710,  1711,  1712,  1713,  1714,  1715,  1716,  1717,  1718,  1719,  1720,  1721,  1722
  1723,  1724,  1725,  1726,  1727,  1728,  1729,  1730,  1731,  1732,  1733,  1734,  1735,  1736,  1737,  1738
  1739,  1740,  1741,  1742,  1743,  1744,  1745,  1746,  1747,  1748,  1749,  1750,  1751,  1752,  1753,  1754
  2403,  2404,  2405,  2406,  2407,  2408,  2409,  2410,  2411,  2412,  2413,  2414,  2415,  2416,  2417,  2418
  2419,  2420,  2421,  2422,  2423,  2424,  2425,  2426,  2427,  2428,  2429,  2430,  2431,  2432,  2433,  2434
  2435,  2436,  2437,  2438,  2439,  2440,  2441,  2442,  2443,  2444,  2445,  2446,  2447,  2448,  2449,  2450
  2451,  2452,  2453,  2454,  2455,  2456,  2457,  2458,  2459,  2460,  2461,  2462,  2463,  2464,  2465,  2466
** ... 188 like lines cut
*Surface, type=ELEMENT, name=m_Surf-2
_m_Surf-2_SNEG, SNEG
*Surface, type=NODE, name=beam-1_beam_col_interf_CNS_
beam-1_beam_col_interf, 1.
*Surface, type=NODE, name=beam-2_beam_col_interf_CNS_
beam-2_beam_col_interf, 1.
*Surface, type=NODE, name=cont_plate-1_out_edges_CNS_
cont_plate-1_out_edges, 1.
*Surface, type=NODE, name=cont_plate-1-lin-1-2_out_edges_CNS_
cont_plate-1-lin-1-2_out_edges, 1.
*Surface, type=NODE, name=cont_plate-1-lin-2-1_out_edges_CNS_
cont_plate-1-lin-2-1_out_edges, 1.
*Surface, type=NODE, name=cont_plate-1-lin-2-2_out_edges_CNS_
cont_plate-1-lin-2-2_out_edges, 1.
*Orientation, name="Datum csys-2"
          0.,           0.,          -1.,           0.,           1.,           0.
1, 0.
** Constraint: Constraint-3
*Tie, name=Constraint-3, adjust=yes
beam-1_beam_col_interf_CNS_, m_Surf-1
** Constraint: Constraint-3-Copy
*Tie, name=Constraint-3-Copy, adjust=yes
beam-2_beam_col_interf_CNS_, m_Surf-2
** Constraint: col_bot_rigid
*Rigid Body, ref node=col_bot_rp, tie nset=t_Set-4
** Constraint: col_top_rigid
*Rigid Body, ref node=col_top_rp, tie nset=t_Set-3
** Constraint: cont_pl_1
*Tie, name=cont_pl_1, adjust=yes
cont_plate-1_out_edges_CNS_, col_surfaces
** Constraint: cont_pl_2
*Tie, name=cont_pl_2, adjust=yes
cont_plate-1-lin-1-2_out_edges_CNS_, col_surfaces
** Constraint: cont_pl_3
*Tie, name=cont_pl_3, adjust=yes
cont_plate-1-lin-2-1_out_edges_CNS_, col_surfaces
** Constraint: cont_pl_4
*Tie, name=cont_pl_4, adjust=yes
cont_plate-1-lin-2-2_out_edges_CNS_, col_surfaces
*Connector Behavior, name=ConnSect-1
*Connector Elasticity, component=4
 1e+10,
** 
** ELEMENT CONTROLS
** 
*Section Controls, name=EC-1, hourglass=ENHANCED
1., 1., 1.
*Amplitude, name=lateral_amp, definition=EQUALLY SPACED, fixed interval=1.
             0.,     0.002784348,       5.1271551,     0.150808944,      7.68108827,     12.75919762,     0.442028961,    -6.931781793
   -12.94652249,    -0.410360876,     8.742618913,     12.89386931,     0.094385003,     -6.76835197,    -12.69018989,    -1.092262865
   -1.092413614,     5.281159999,     12.75746801,      0.09116187,    -7.121188958,    -12.33929041,    -0.763583182,     8.224215073
    12.71614234,     0.337136359,     -7.12456919,    -12.69275008,    -1.162503771,     7.019675699,     12.58506183,     0.324143624
   -7.782298888,    -12.34323351,    -1.061486574,      7.28393641,     12.76386538,     0.324291706,     -6.06142425,    -12.39677048
   -0.783291042,    -0.779795494,     7.168502935,      17.3195568,     0.524111982,    -7.568481815,    -17.18614711,    -1.057740201
    8.999902244,     17.21452171,     0.482017578,    -8.100013772,    -17.19314799,    -1.107414219,     9.109984574,     17.18570756
    0.339980905,    -7.514522182,    -16.71729194,    -1.019413125,     8.398640302,     17.09194753,     0.206426181,    -7.307193539
   -16.68170387,    -0.834678798,      7.86626316,     17.44676051,     0.081023587,    -7.979332022,     -16.6718041,    -1.269764161
    8.439383553,     17.21481596,     0.102936421,    -7.398555561,     -16.6744984,    -0.977257126,    -0.977200611,     19.19331379
    25.88343236,     0.310119776,    -13.94225939,    -25.88564076,     -0.42879772,     13.35930818,     26.30146442,     0.358496235
   -13.04560027,     -25.7129741,    -0.782263485,     13.05921417,     26.11881619,     0.435996715,    -13.39995123,    -25.27800215
   -0.690296308,     13.19368342,     26.56044713,     0.405544274,    -12.69198871,    -25.42259228,    -0.992418767,     13.18792244
    26.34826633,    -0.054919118,    -12.96877924,    -25.10218475,    -1.039916767,     12.83031026,     26.17242314,     0.493659033
   -12.77248169,    -25.24140723,    -0.856400497,    -0.856668213,     17.02872172,     32.37350002,     35.55344464,     4.111648622
   -16.86447313,    -27.46744456,    -34.34711787,    -6.608725162,     12.90924596,     31.87173014,     35.62504267,     24.03362973
    6.368958941,    -16.77976032,    -27.06165162,    -34.61752487,    -24.87088142,    -11.41609972,    -6.258612324,     15.36484265
    29.38271365,     35.79868583,     22.57613506,     11.30652539,     5.830961922,    -10.80344601,    -22.62172717,    -34.65968862
   -24.39535532,    -14.86308623,    -6.632564078,     8.562793644,     22.38314002,     35.61271834,     26.06198013,     15.10656948
     6.17522133,    -10.66462574,      -20.777287,    -34.67158788,    -26.79463323,    -16.84422869,    -6.336707418,    -6.336105184
** ... 38 like lines cut
** 
** MATERIALS
** 
*Material, name=steel_flange
*Elastic
200000., 0.3
*Plastic, hardening=COMBINED, datatype=PARAMETERS, number backstresses=2
 318.47,  11608.,  145.22, 1026.33,    4.68
*Cyclic Hardening, parameters
 318.47, 100.72,     8.
*Material, name=steel_sac-avg
*Elastic
207300., 0.3
*Plastic, hardening=COMBINED, datatype=PARAMETERS, number backstresses=1
352., 2305.55,  20.153
*Cyclic Hardening, parameters
352., 61.6014, 8.95688
*Material, name=steel_sac-avg-lowfy
*Elastic
207300., 0.3
*Plastic, hardening=COMBINED, datatype=PARAMETERS, number backstresses=1
320., 2305.55,  20.153
*Cyclic Hardening, parameters
320., 61.6014, 8.95688
*Material, name=steel_web
*Elastic
200000., 0.3
*Plastic, hardening=COMBINED, datatype=PARAMETERS, number backstresses=2
 339.18, 8716.08,  118.47, 1182.05,    5.22
*Cyclic Hardening, parameters
 339.18, 77.52,  9.29
** 
** BOUNDARY CONDITIONS
** 
** Name: beam_lateral_hold Type: Displacement/Rotation
*Boundary
beam_corner_nodes, 1, 1
** Name: bot_fix Type: Displacement/Rotation
*Boundary
col_bot_rp, 1, 1
col_bot_rp, 2, 2
col_bot_rp, 3, 3
col_bot_rp, 4, 4
col_bot_rp, 5, 5
col_bot_rp, 6, 6
** Name: pz_lat_fix Type: Displacement/Rotation
*Boundary
pz_corners, 1, 1
** Name: roller_supports Type: Displacement/Rotation
*Boundary
roller_nodes, 3, 3
** Name: top_fix Type: Displacement/Rotation
*Boundary
top_spring_node, 6, 6
** ----------------------------------------------------------------
** 
** STEP: gravity
** 
*Step, name=gravity, nlgeom=YES, inc=1000000
*Static
0.1, 1., 1e-05, 0.1
** 
** LOADS
** 
** Name: grav_load   Type: Concentrated force
*Cload
col_top_rp, 3, -3.4003e+06
** 
** OUTPUT REQUESTS
** 
*Restart, write, frequency=0
** 
** FIELD OUTPUT: F-Output-1
** 
*Output, field, variable=PRESELECT, time interval=1.
** 
** HISTORY OUTPUT: H-Output-1
** 
*Output, history, variable=PRESELECT
*End Step
** ----------------------------------------------------------------
** 
** STEP: cyclic_loading
** 
*Step, name=cyclic_loading, nlgeom=YES, inc=1000000000
*Static
1., 463., 1e-10, 1.
** 
** BOUNDARY CONDITIONS
** 
** Name: top_disp_control Type: Displacement/Rotation
*Boundary, amplitude=lateral_amp
top_spring_node, 2, 2, 2.2247
** 
** OUTPUT REQUESTS
** 
*Restart, write, frequency=0
** 
** FIELD OUTPUT: F-Output-1
** 
*Output, field, variable=PRESELECT, time interval=1.
** 
** HISTORY OUTPUT: H-Output-1
** 
*Output, history, variable=PRESELECT
*End Step
