*Heading
** Job name: W24X146_Dynamic-WIKC-4500 Model name: W24X146_Dynamic-WIKC-4500
** Generated by: Abaqus/CAE 6.14-1
*Preprint, echo=NO, model=NO, history=NO, contact=NO
** ----------------------------------------------------------------
** 
** PART INSTANCE: top_segment
** 
*Node
      1,           0.,  -299.649994,           0.
      2,           0.,  -299.649994,         900.
      3,        -164.,  -299.649994,         900.
      4,        -164.,  -299.649994,           0.
      5,         164.,  -299.649994,           0.
      6,         164.,  -299.649994,         900.
      7,           0.,   299.649994,           0.
      8,           0.,   299.649994,         900.
      9,        -164.,   299.649994,         900.
     10,        -164.,   299.649994,           0.
     11,         164.,   299.649994,           0.
     12,         164.,   299.649994,         900.
     13,           0.,  -299.649994,          25.
     14,           0.,  -299.649994,          50.
     15,           0.,  -299.649994,          75.
     16,           0.,  -299.649994,         100.
     17,           0.,  -299.649994,         125.
     18,           0.,  -299.649994,         150.
     19,           0.,  -299.649994,         175.
     20,           0.,  -299.649994,         200.
** ... 1941 like lines cut
*Element, type=S4R
  1,   1,  13, 317,  94
  2,  13,  14, 318, 317
  3,  14,  15, 319, 318
  4,  15,  16, 320, 319
  5,  16,  17, 321, 320
  6,  17,  18, 322, 321
  7,  18,  19, 323, 322
  8,  19,  20, 324, 323
  9,  20,  21, 325, 324
 10,  21,  22, 326, 325
 11,  22,  23, 327, 326
 12,  23,  24, 328, 327
 13,  24,  25, 329, 328
 14,  25,  26, 330, 329
 15,  26,  27, 331, 330
 16,  27,  28, 332, 331
 17,  28,  29, 333, 332
 18,  29,  30, 334, 333
 19,  30,  31, 335, 334
 20,  31,  32, 336, 335
** ... 1852 like lines cut
*Nset, nset=top_segment__PickedSet2
    1,    2,    3,    4,    5,    6,    7,    8,    9,   10,   11,   12,   13,   14,   15,   16
   17,   18,   19,   20,   21,   22,   23,   24,   25,   26,   27,   28,   29,   30,   31,   32
   33,   34,   35,   36,   37,   38,   39,   40,   41,   42,   43,   44,   45,   46,   47,   48
   49,   50,   51,   52,   53,   54,   55,   56,   57,   58,   59,   60,   61,   62,   63,   64
   65,   66,   67,   68,   69,   70,   71,   72,   73,   74,   75,   76,   77,   78,   79,   80
   81,   82,   83,   84,   85,   86,   87,   88,   89,   90,   91,   92,   93,   94,   95,   96
   97,   98,   99,  100,  101,  102,  103,  104,  105,  106,  107,  108,  109,  110,  111,  112
  113,  114,  115,  116,  117,  118,  119,  120,  121,  122,  123,  124,  125,  126,  127,  128
  129,  130,  131,  132,  133,  134,  135,  136,  137,  138,  139,  140,  141,  142,  143,  144
  145,  146,  147,  148,  149,  150,  151,  152,  153,  154,  155,  156,  157,  158,  159,  160
  161,  162,  163,  164,  165,  166,  167,  168,  169,  170,  171,  172,  173,  174,  175,  176
  177,  178,  179,  180,  181,  182,  183,  184,  185,  186,  187,  188,  189,  190,  191,  192
  193,  194,  195,  196,  197,  198,  199,  200,  201,  202,  203,  204,  205,  206,  207,  208
  209,  210,  211,  212,  213,  214,  215,  216,  217,  218,  219,  220,  221,  222,  223,  224
  225,  226,  227,  228,  229,  230,  231,  232,  233,  234,  235,  236,  237,  238,  239,  240
  241,  242,  243,  244,  245,  246,  247,  248,  249,  250,  251,  252,  253,  254,  255,  256
  257,  258,  259,  260,  261,  262,  263,  264,  265,  266,  267,  268,  269,  270,  317,  318
  319,  320,  321,  322,  323,  324,  325,  326,  327,  328,  329,  330,  331,  332,  333,  334
  335,  336,  337,  338,  339,  340,  341,  342,  343,  344,  345,  346,  347,  348,  349,  350
  351,  352,  353,  354,  355,  356,  357,  358,  359,  360,  361,  362,  363,  364,  365,  366
** ... 50 like lines cut
*Elset, elset=top_segment__PickedSet2, generate
    1,  1008,     1
*Nset, nset=top_segment__G3
    1,    2,    7,    8,   13,   14,   15,   16,   17,   18,   19,   20,   21,   22,   23,   24
   25,   26,   27,   28,   29,   30,   31,   32,   33,   34,   35,   36,   37,   38,   39,   40
   41,   42,   43,   44,   45,   46,   47,  142,  143,  144,  145,  146,  147,  148,  149,  150
  151,  152,  153,  154,  155,  156,  157,  158,  159,  160,  161,  162,  163,  164,  165,  166
  167,  168,  169,  170,  171,  172,  173,  174,  175,  176,  271,  272,  273,  274,  275,  276
  277,  278,  279,  280,  281,  282,  283,  284,  285,  286,  287,  288,  289,  290,  291,  292
  293,  294,  295,  296,  297,  298,  299,  300,  301,  302,  303,  304,  305,  306,  307,  308
  309,  310,  311,  312,  313,  314,  315,  316, 1157, 1158, 1159, 1160, 1161, 1162, 1163, 1164
 1165, 1166, 1167, 1168, 1169, 1170, 1171, 1172, 1173, 1174, 1175, 1176, 1177, 1178, 1179, 1180
 1181, 1182, 1183, 1184, 1185, 1186, 1187, 1188, 1189, 1190, 1191, 1192, 1193, 1194, 1195, 1196
 1197, 1198, 1199, 1200, 1201, 1202, 1203, 1204, 1205, 1206, 1207, 1208, 1209, 1210, 1211, 1212
 1213, 1214, 1215, 1216, 1217, 1218, 1219, 1220, 1221, 1222, 1223, 1224, 1225, 1226, 1227, 1228
 1229, 1230, 1231, 1232, 1233, 1234, 1235, 1236, 1237, 1238, 1239, 1240, 1241, 1242, 1243, 1244
 1245, 1246, 1247, 1248, 1249, 1250, 1251, 1252, 1253, 1254, 1255, 1256, 1257, 1258, 1259, 1260
 1261, 1262, 1263, 1264, 1265, 1266, 1267, 1268, 1269, 1270, 1271, 1272, 1273, 1274, 1275, 1276
 1277, 1278, 1279, 1280, 1281, 1282, 1283, 1284, 1285, 1286, 1287, 1288, 1289, 1290, 1291, 1292
 1293, 1294, 1295, 1296, 1297, 1298, 1299, 1300, 1301, 1302, 1303, 1304, 1305, 1306, 1307, 1308
 1309, 1310, 1311, 1312, 1313, 1314, 1315, 1316, 1317, 1318, 1319, 1320, 1321, 1322, 1323, 1324
 1325, 1326, 1327, 1328, 1329, 1330, 1331, 1332, 1333, 1334, 1335, 1336, 1337, 1338, 1339, 1340
 1341, 1342, 1343, 1344, 1345, 1346, 1347, 1348, 1349, 1350, 1351, 1352, 1353, 1354, 1355, 1356
** ... 38 like lines cut
*Elset, elset=top_segment__G3, generate
 1009,  1872,     1
*Nset, nset=top_segment_shell_top_nodes
   2,   3,   6,   8,   9,  12,  48,  49,  50,  51,  52,  53, 136, 137, 138, 139
 140, 141, 177, 178, 179, 180, 181, 182, 265, 266, 267, 268, 269, 270, 271, 272
 273, 274, 275, 276, 277, 278, 279, 280, 281, 282, 283, 284, 285, 286, 287, 288
 289, 290, 291, 292, 293
*Elset, elset=top_segment_shell_top_nodes
   36,   72,  108,  144,  180,  216,  252,  253,  289,  325,  361,  397,  433,  469,  540,  576
  612,  648,  684,  720,  756,  757,  793,  829,  865,  901,  937,  973, 1009, 1010, 1011, 1012
 1013, 1014, 1015, 1016, 1017, 1018, 1019, 1020, 1021, 1022, 1023, 1024, 1025, 1026, 1027, 1028
 1029, 1030, 1031, 1032
*Nset, nset=top_segment_shell_bot_nodes
   1,   4,   5,   7,  10,  11,  89,  90,  91,  92,  93,  94,  95,  96,  97,  98
  99, 100, 218, 219, 220, 221, 222, 223, 224, 225, 226, 227, 228, 229, 294, 295
 296, 297, 298, 299, 300, 301, 302, 303, 304, 305, 306, 307, 308, 309, 310, 311
 312, 313, 314, 315, 316
*Elset, elset=top_segment_shell_bot_nodes
    1,   37,   73,  109,  145,  181,  217,  288,  324,  360,  396,  432,  468,  504,  505,  541
  577,  613,  649,  685,  721,  792,  828,  864,  900,  936,  972, 1008, 1849, 1850, 1851, 1852
 1853, 1854, 1855, 1856, 1857, 1858, 1859, 1860, 1861, 1862, 1863, 1864, 1865, 1866, 1867, 1868
 1869, 1870, 1871, 1872
** Section: flange_section
*Shell Section, elset=top_segment__PickedSet2, material=steel_chabouche-flange-orig, controls=EC-1
27.7, 5
** Section: web_section
*Shell Section, elset=top_segment__G3, material=steel_chabouche-web-orig, controls=EC-1
16.5, 5
** ----------------------------------------------------------------
** 
** PART INSTANCE: shell_segment-1
** 
*System
          0.,          0.,       3600.,          1.,          0.,       3600.
*Node
   1962,           0.,  -299.649994,           0.
   1963,           0.,  -299.649994,         900.
   1964,        -164.,  -299.649994,         900.
   1965,        -164.,  -299.649994,           0.
   1966,         164.,  -299.649994,           0.
   1967,         164.,  -299.649994,         900.
   1968,           0.,   299.649994,           0.
   1969,           0.,   299.649994,         900.
   1970,        -164.,   299.649994,         900.
   1971,        -164.,   299.649994,           0.
   1972,         164.,   299.649994,           0.
   1973,         164.,   299.649994,         900.
   1974,           0.,  -299.649994,          25.
   1975,           0.,  -299.649994,          50.
   1976,           0.,  -299.649994,          75.
   1977,           0.,  -299.649994,         100.
   1978,           0.,  -299.649994,         125.
   1979,           0.,  -299.649994,         150.
   1980,           0.,  -299.649994,         175.
   1981,           0.,  -299.649994,         200.
** ... 1941 like lines cut
*Element, type=S4R
1873, 1962, 1974, 2278, 2055
1874, 1974, 1975, 2279, 2278
1875, 1975, 1976, 2280, 2279
1876, 1976, 1977, 2281, 2280
1877, 1977, 1978, 2282, 2281
1878, 1978, 1979, 2283, 2282
1879, 1979, 1980, 2284, 2283
1880, 1980, 1981, 2285, 2284
1881, 1981, 1982, 2286, 2285
1882, 1982, 1983, 2287, 2286
1883, 1983, 1984, 2288, 2287
1884, 1984, 1985, 2289, 2288
1885, 1985, 1986, 2290, 2289
1886, 1986, 1987, 2291, 2290
1887, 1987, 1988, 2292, 2291
1888, 1988, 1989, 2293, 2292
1889, 1989, 1990, 2294, 2293
1890, 1990, 1991, 2295, 2294
1891, 1991, 1992, 2296, 2295
1892, 1992, 1993, 2297, 2296
** ... 1852 like lines cut
*Nset, nset=shell_segment-1__PickedSet2
 1962, 1963, 1964, 1965, 1966, 1967, 1968, 1969, 1970, 1971, 1972, 1973, 1974, 1975, 1976, 1977
 1978, 1979, 1980, 1981, 1982, 1983, 1984, 1985, 1986, 1987, 1988, 1989, 1990, 1991, 1992, 1993
 1994, 1995, 1996, 1997, 1998, 1999, 2000, 2001, 2002, 2003, 2004, 2005, 2006, 2007, 2008, 2009
 2010, 2011, 2012, 2013, 2014, 2015, 2016, 2017, 2018, 2019, 2020, 2021, 2022, 2023, 2024, 2025
 2026, 2027, 2028, 2029, 2030, 2031, 2032, 2033, 2034, 2035, 2036, 2037, 2038, 2039, 2040, 2041
 2042, 2043, 2044, 2045, 2046, 2047, 2048, 2049, 2050, 2051, 2052, 2053, 2054, 2055, 2056, 2057
 2058, 2059, 2060, 2061, 2062, 2063, 2064, 2065, 2066, 2067, 2068, 2069, 2070, 2071, 2072, 2073
 2074, 2075, 2076, 2077, 2078, 2079, 2080, 2081, 2082, 2083, 2084, 2085, 2086, 2087, 2088, 2089
 2090, 2091, 2092, 2093, 2094, 2095, 2096, 2097, 2098, 2099, 2100, 2101, 2102, 2103, 2104, 2105
 2106, 2107, 2108, 2109, 2110, 2111, 2112, 2113, 2114, 2115, 2116, 2117, 2118, 2119, 2120, 2121
 2122, 2123, 2124, 2125, 2126, 2127, 2128, 2129, 2130, 2131, 2132, 2133, 2134, 2135, 2136, 2137
 2138, 2139, 2140, 2141, 2142, 2143, 2144, 2145, 2146, 2147, 2148, 2149, 2150, 2151, 2152, 2153
 2154, 2155, 2156, 2157, 2158, 2159, 2160, 2161, 2162, 2163, 2164, 2165, 2166, 2167, 2168, 2169
 2170, 2171, 2172, 2173, 2174, 2175, 2176, 2177, 2178, 2179, 2180, 2181, 2182, 2183, 2184, 2185
 2186, 2187, 2188, 2189, 2190, 2191, 2192, 2193, 2194, 2195, 2196, 2197, 2198, 2199, 2200, 2201
 2202, 2203, 2204, 2205, 2206, 2207, 2208, 2209, 2210, 2211, 2212, 2213, 2214, 2215, 2216, 2217
 2218, 2219, 2220, 2221, 2222, 2223, 2224, 2225, 2226, 2227, 2228, 2229, 2230, 2231, 2278, 2279
 2280, 2281, 2282, 2283, 2284, 2285, 2286, 2287, 2288, 2289, 2290, 2291, 2292, 2293, 2294, 2295
 2296, 2297, 2298, 2299, 2300, 2301, 2302, 2303, 2304, 2305, 2306, 2307, 2308, 2309, 2310, 2311
 2312, 2313, 2314, 2315, 2316, 2317, 2318, 2319, 2320, 2321, 2322, 2323, 2324, 2325, 2326, 2327
** ... 50 like lines cut
*Elset, elset=shell_segment-1__PickedSet2, generate
 1873,  2880,     1
*Nset, nset=shell_segment-1__G3
 1962, 1963, 1968, 1969, 1974, 1975, 1976, 1977, 1978, 1979, 1980, 1981, 1982, 1983, 1984, 1985
 1986, 1987, 1988, 1989, 1990, 1991, 1992, 1993, 1994, 1995, 1996, 1997, 1998, 1999, 2000, 2001
 2002, 2003, 2004, 2005, 2006, 2007, 2008, 2103, 2104, 2105, 2106, 2107, 2108, 2109, 2110, 2111
 2112, 2113, 2114, 2115, 2116, 2117, 2118, 2119, 2120, 2121, 2122, 2123, 2124, 2125, 2126, 2127
 2128, 2129, 2130, 2131, 2132, 2133, 2134, 2135, 2136, 2137, 2232, 2233, 2234, 2235, 2236, 2237
 2238, 2239, 2240, 2241, 2242, 2243, 2244, 2245, 2246, 2247, 2248, 2249, 2250, 2251, 2252, 2253
 2254, 2255, 2256, 2257, 2258, 2259, 2260, 2261, 2262, 2263, 2264, 2265, 2266, 2267, 2268, 2269
 2270, 2271, 2272, 2273, 2274, 2275, 2276, 2277, 3118, 3119, 3120, 3121, 3122, 3123, 3124, 3125
 3126, 3127, 3128, 3129, 3130, 3131, 3132, 3133, 3134, 3135, 3136, 3137, 3138, 3139, 3140, 3141
 3142, 3143, 3144, 3145, 3146, 3147, 3148, 3149, 3150, 3151, 3152, 3153, 3154, 3155, 3156, 3157
 3158, 3159, 3160, 3161, 3162, 3163, 3164, 3165, 3166, 3167, 3168, 3169, 3170, 3171, 3172, 3173
 3174, 3175, 3176, 3177, 3178, 3179, 3180, 3181, 3182, 3183, 3184, 3185, 3186, 3187, 3188, 3189
 3190, 3191, 3192, 3193, 3194, 3195, 3196, 3197, 3198, 3199, 3200, 3201, 3202, 3203, 3204, 3205
 3206, 3207, 3208, 3209, 3210, 3211, 3212, 3213, 3214, 3215, 3216, 3217, 3218, 3219, 3220, 3221
 3222, 3223, 3224, 3225, 3226, 3227, 3228, 3229, 3230, 3231, 3232, 3233, 3234, 3235, 3236, 3237
 3238, 3239, 3240, 3241, 3242, 3243, 3244, 3245, 3246, 3247, 3248, 3249, 3250, 3251, 3252, 3253
 3254, 3255, 3256, 3257, 3258, 3259, 3260, 3261, 3262, 3263, 3264, 3265, 3266, 3267, 3268, 3269
 3270, 3271, 3272, 3273, 3274, 3275, 3276, 3277, 3278, 3279, 3280, 3281, 3282, 3283, 3284, 3285
 3286, 3287, 3288, 3289, 3290, 3291, 3292, 3293, 3294, 3295, 3296, 3297, 3298, 3299, 3300, 3301
 3302, 3303, 3304, 3305, 3306, 3307, 3308, 3309, 3310, 3311, 3312, 3313, 3314, 3315, 3316, 3317
** ... 38 like lines cut
*Elset, elset=shell_segment-1__G3, generate
 2881,  3744,     1
*Nset, nset=shell_segment-1_shell_top_nodes
1963,1964,1967,1969,1970,1973,2009,2010,2011,2012,2013,2014,2097,2098,2099,2100
2101,2102,2138,2139,2140,2141,2142,2143,2226,2227,2228,2229,2230,2231,2232,2233
2234,2235,2236,2237,2238,2239,2240,2241,2242,2243,2244,2245,2246,2247,2248,2249
2250,2251,2252,2253,2254
*Elset, elset=shell_segment-1_shell_top_nodes
 1908, 1944, 1980, 2016, 2052, 2088, 2124, 2125, 2161, 2197, 2233, 2269, 2305, 2341, 2412, 2448
 2484, 2520, 2556, 2592, 2628, 2629, 2665, 2701, 2737, 2773, 2809, 2845, 2881, 2882, 2883, 2884
 2885, 2886, 2887, 2888, 2889, 2890, 2891, 2892, 2893, 2894, 2895, 2896, 2897, 2898, 2899, 2900
 2901, 2902, 2903, 2904
*Nset, nset=shell_segment-1_shell_bot_nodes
1962,1965,1966,1968,1971,1972,2050,2051,2052,2053,2054,2055,2056,2057,2058,2059
2060,2061,2179,2180,2181,2182,2183,2184,2185,2186,2187,2188,2189,2190,2255,2256
2257,2258,2259,2260,2261,2262,2263,2264,2265,2266,2267,2268,2269,2270,2271,2272
2273,2274,2275,2276,2277
*Elset, elset=shell_segment-1_shell_bot_nodes
 1873, 1909, 1945, 1981, 2017, 2053, 2089, 2160, 2196, 2232, 2268, 2304, 2340, 2376, 2377, 2413
 2449, 2485, 2521, 2557, 2593, 2664, 2700, 2736, 2772, 2808, 2844, 2880, 3721, 3722, 3723, 3724
 3725, 3726, 3727, 3728, 3729, 3730, 3731, 3732, 3733, 3734, 3735, 3736, 3737, 3738, 3739, 3740
 3741, 3742, 3743, 3744
** Section: flange_section
*Shell Section, elset=shell_segment-1__PickedSet2, material=steel_chabouche-flange-orig, controls=EC-1
27.7, 5
** Section: web_section
*Shell Section, elset=shell_segment-1__G3, material=steel_chabouche-web-orig, controls=EC-1
16.5, 5
** ----------------------------------------------------------------
** 
** PART INSTANCE: beam_segment-1
** 
*System
          0.,          0.,       1220., 6.12323399573677e-17,          0.,       1221.
          0.,          1.,       1220.
*Node
   3923,        -320.,           0.,           0.
   3924,        1030.,           0.,           0.
   3925,        2380.,           0.,           0.
   3926,         130.,           0.,           0.
   3927,         580.,           0.,           0.
   3928,        1480.,           0.,           0.
   3929,        1930.,           0.,           0.
*Element, type=B31OS
3745, 3923, 3926
3746, 3926, 3927
3747, 3927, 3924
3748, 3924, 3928
3749, 3928, 3929
3750, 3929, 3925
*Nset, nset=beam_segment-1_beam_node_bot
3923,
*Nset, nset=beam_segment-1_beam_node_top
3925,
*Nset, nset=beam_segment-1_beam_node_mid
3924,
*Nset, nset=beam_segment-1_Set-1, generate
3923, 3929,  1
*Elset, elset=beam_segment-1_Set-1, generate
3745, 3750,  1
*Nset, nset=beam_segment-1_Set-2, generate
3923, 3929,  1
*Elset, elset=beam_segment-1_Set-2, generate
3745, 3750,  1
** Section: beam_section  Profile: W24X146
*Beam Section, elset=beam_segment-1_Set-1, material=steel_chabouche-flange-orig, temperature=GRADIENTS, section=I
313.5, 627., 328., 328., 27.7, 27.7, 16.5
1.,0.,-6.12323e-17
*System
*Node
   3930,           0.,           0.,        4500.
*Node
   3931,           0.,           0.,           0.
*Nset, nset=Set-10
3930,
*Nset, nset=Set-11
3930,
*Nset, nset=Set-12
3930,
*Nset, nset=Set-13
3931,
*Nset, nset=base_node
3931,
*Nset, nset=control_node
3930,
*Nset, nset=_PickedSet7
3930,
*Nset, nset=_PickedSet8
3931,
*Nset, nset=_PickedSet12
3931,
*Nset, nset=_PickedSet13
3930,
*Elset, elset=_s_Surf-1_SNEG, generate
    1,  1872,     1
*Surface, type=ELEMENT, name=s_Surf-1
_s_Surf-1_SNEG, SNEG
** Constraint: rigid_base
*Rigid Body, ref node=_PickedSet8, tie nset=top_segment_shell_bot_nodes
** Constraint: top_plate
*Rigid Body, ref node=_PickedSet7, tie nset=shell_segment-1_shell_top_nodes
*Element, type=MASS, elset=Set-12_Inertia-1_
3751, 3930
*Mass, elset=Set-12_Inertia-1_, type=ANISOTROPIC, alpha=0.168
0., 1376.17, 0.
** 
** ELEMENT CONTROLS
** 
*Section Controls, name=EC-1, hourglass=ENHANCED
1., 1., 1.
*Amplitude, name=nr94cnp, definition=EQUALLY SPACED, fixed interval=0.01
             0.,        -0.00122,        -0.00117,         -0.0012,        -0.00116,        -0.00119,        -0.00113,        -0.00114
       -0.00109,        -0.00111,        -0.00106,        -0.00112,        -0.00108,         -0.0011,        -0.00105,        -0.00102
      -0.000921,       -0.000986,        -0.00102,        -0.00105,        -0.00098,       -0.000905,       -0.000778,       -0.000815
      -0.000827,       -0.000995,       -0.000757,       -0.000679,       -0.000628,        -0.00066,       -0.000555,       -0.000798
      -0.000854,       -0.000605,       -0.000285,       -9.23e-05,         8.3e-05,        3.81e-05,        7.05e-05,       -0.000752
      -0.000681,        -0.00026,       -0.000192,       -0.000697,       -0.000949,        -0.00126,       -0.000798,       -0.000763
      -0.000783,        -0.00135,        -0.00156,        -0.00158,        -0.00118,        0.000231,         0.00245,         0.00237
        0.00114,        6.73e-05,       -0.000535,       -0.000629,        0.000138,        0.000662,         0.00152,        0.000872
       -0.00129,        -0.00277,        -0.00299,        -0.00223,        -0.00187,        -0.00322,        -0.00553,        -0.00712
       -0.00648,        -0.00409,        0.000171,         0.00333,         0.00506,         0.00588,         0.00327,       -1.12e-05
      -0.000419,        0.000538,        0.000404,        -0.00162,       -0.000564,         0.00332,         0.00568,          0.0069
        0.00508,        0.000472,        -0.00525,        -0.00953,        -0.00951,        -0.00564,       -0.000126,         0.00296
         0.0031,       -0.000104,        -0.00297,        -0.00238,         0.00116,         0.00204,         0.00112,          -0.002
       -0.00598,        -0.00679,        -0.00181,         0.00315,         0.00386,         0.00227,         0.00206,         0.00334
        0.00572,         0.00823,          0.0089,         0.00868,          0.0103,          0.0134,          0.0106,         0.00635
        0.00194,         -0.0029,        -0.00674,         -0.0061,         0.00741,           0.017,          0.0161,          0.0101
         0.0052,         0.00626,         0.00985,         0.00999,         0.00752,         0.00248,         0.00036,         0.00542
        0.00897,         0.00332,        -0.00886,         -0.0173,         -0.0158,         -0.0104,        -0.00848,         -0.0049
        0.00118,          0.0082,          0.0177,           0.023,           0.022,          0.0196,          0.0182,          0.0135
        0.00625,         0.00235,         0.00417,         0.00676,         0.00858,         0.00773,         0.00856,           0.011
** ... 292 like lines cut
** 
** MATERIALS
** 
*Material, name=UVC_flange
*Density
 8e-12,
*Depvar
     10,
*User Material, constants=11
200000.,    0.3, 373.72, 141.47,   15.2, 135.95, 211.16, 25621.
 235.12, 942.18,   3.16
*Material, name=UVC_web
*Density
 8e-12,
*Depvar
     10,
*User Material, constants=11
200000.,    0.3, 378.83, 122.63,  19.74, 143.49, 248.14, 31638.
 277.32, 1548.6,   9.04
*Material, name=steel_chabouche-flange
*Density
 8e-12,
*Elastic
198600., 0.3
*Plastic, hardening=COMBINED, datatype=PARAMETERS, number backstresses=2
 339.8, 11608.2,   145.2,  1026.3,     4.7
*Cyclic Hardening, parameters
 339.8, 100.7,    8.
*Material, name=steel_chabouche-flange-orig
*Density
 8e-12,
*Elastic
180000., 0.3
*Plastic, hardening=COMBINED, datatype=PARAMETERS, number backstresses=2
 318.5, 11608.2,   145.2,  1026.3,     4.7
*Cyclic Hardening, parameters
 318.5, 100.7,    8.
*Material, name=steel_chabouche-web
*Density
 8e-12,
*Elastic
185200., 0.3
*Plastic, hardening=COMBINED, datatype=PARAMETERS, number backstresses=2
 369.2, 8716.1,  118.5, 1182.1,    5.2
*Cyclic Hardening, parameters
 369.2, 77.5,  9.3
*Material, name=steel_chabouche-web-orig
*Density
 8e-12,
*Elastic
183000., 0.3
*Plastic, hardening=COMBINED, datatype=PARAMETERS, number backstresses=2
 339.2, 8716.1,  118.5, 1182.1,    5.2
*Cyclic Hardening, parameters
 339.2, 77.5,  9.3
** 
** BOUNDARY CONDITIONS
** 
** Name: bot_fix Type: Displacement/Rotation
*Boundary
_PickedSet12, 1, 1
_PickedSet12, 2, 2
_PickedSet12, 3, 3
_PickedSet12, 4, 4
_PickedSet12, 5, 5
_PickedSet12, 6, 6
** Name: top_fix Type: Displacement/Rotation
*Boundary
Set-11, 1, 1
Set-11, 4, 4
Set-11, 5, 5
Set-11, 6, 6
*IMPERFECTION, input=W24X146_Dynamic-KC-4500-Imp.txt
** ----------------------------------------------------------------
** 
** STEP: gravity_loading
** 
*Step, name=gravity_loading, nlgeom=YES, inc=10000
*Static
0.1, 1., 1e-35, 0.1
** 
** LOADS
** 
** Name: gravity_load   Type: Concentrated force
*Cload
_PickedSet13, 3, -2.1e+06
** Name: mid_torque-half   Type: Moment
*Cload
beam_segment-1_beam_node_mid, 6, 3e+07
** 
** OUTPUT REQUESTS
** 
*Restart, write, frequency=0
** 
** FIELD OUTPUT: F-Output-1
** 
*Output, field, variable=PRESELECT
** 
** HISTORY OUTPUT: H-Output-1
** 
*Output, history, variable=PRESELECT
*End Step
** ----------------------------------------------------------------
** 
** STEP: dynamic_loading
** 
*Step, name=dynamic_loading, nlgeom=YES, inc=100000000
*Dynamic
0.01,25.,1e-08,0.01
** 
** BOUNDARY CONDITIONS
** 
** Name: base_accel Type: Acceleration/Angular acceleration
*Boundary, op=NEW, amplitude=nr94cnp, type=ACCELERATION
Set-13, 2, 2, 9810.
** Name: bot_fix Type: Displacement/Rotation
*Boundary, op=NEW
_PickedSet12, 1, 1
_PickedSet12, 3, 3
_PickedSet12, 4, 4
_PickedSet12, 5, 5
_PickedSet12, 6, 6
** Name: top_fix Type: Displacement/Rotation
*Boundary, op=NEW
Set-11, 1, 1
Set-11, 4, 4
Set-11, 5, 5
Set-11, 6, 6
** 
** OUTPUT REQUESTS
** 
*Restart, write, frequency=0
** 
** FIELD OUTPUT: F-Output-1
** 
*Output, field, variable=PRESELECT, time interval=0.01
** 
** HISTORY OUTPUT: H-Output-1
** 
*Output, history, variable=PRESELECT, frequency=1
*End Step
