*Heading
** Job name: DBBW-Macro-WIKC-LongShell Model name: DBBW-Macro-WIKC-LongShell
** Generated by: Abaqus/CAE 6.14-1
*Preprint, echo=NO, model=NO, history=NO, contact=NO
** ----------------------------------------------------------------
** 
** PART INSTANCE: column-1
** 
*System
          0.,          0.,       1004.,          1.,          0.,       1004.
*Node
      1,           0.,  -196.300003,        1700.
      2,           0.,  -196.300003,           0.
      3,         211.,  -196.300003,           0.
      4,         211.,  -196.300003,        1700.
      5,        -211.,  -196.300003,        1700.
      6,        -211.,  -196.300003,           0.
      7,           0.,   196.300003,        1700.
      8,           0.,   196.300003,           0.
      9,        -211.,   196.300003,        1700.
     10,        -211.,   196.300003,           0.
     11,         211.,   196.300003,           0.
     12,         211.,   196.300003,        1700.
     13,           0.,  -196.300003,        1650.
     14,           0.,  -196.300003,        1600.
     15,           0.,  -196.300003,        1550.
     16,           0.,  -196.300003,        1500.
     17,           0.,  -196.300003,        1450.
     18,           0.,  -196.300003,        1400.
     19,           0.,  -196.300003,        1350.
     20,           0.,  -196.300003,        1300.
** ... 855 like lines cut
*Element, type=S4R
  1,   1,  13, 249,  84
  2,  13,  14, 250, 249
  3,  14,  15, 251, 250
  4,  15,  16, 252, 251
  5,  16,  17, 253, 252
  6,  17,  18, 254, 253
  7,  18,  19, 255, 254
  8,  19,  20, 256, 255
  9,  20,  21, 257, 256
 10,  21,  22, 258, 257
 11,  22,  23, 259, 258
 12,  23,  24, 260, 259
 13,  24,  25, 261, 260
 14,  25,  26, 262, 261
 15,  26,  27, 263, 262
 16,  27,  28, 264, 263
 17,  28,  29, 265, 264
 18,  29,  30, 266, 265
 19,  30,  31, 267, 266
 20,  31,  32, 268, 267
** ... 796 like lines cut
*Nset, nset=column-1_Set-1
   1,   2,   3,   4,   5,   6,   7,   8,   9,  10,  11,  12,  13,  14,  15,  16
  17,  18,  19,  20,  21,  22,  23,  24,  25,  26,  27,  28,  29,  30,  31,  32
  33,  34,  35,  36,  37,  38,  39,  40,  41,  42,  43,  44,  45,  46,  47,  48
  49,  50,  51,  52,  53,  54,  55,  56,  57,  58,  59,  60,  61,  62,  63,  64
  65,  66,  67,  68,  69,  70,  71,  72,  73,  74,  75,  76,  77,  78,  79,  80
  81,  82,  83,  84,  85,  86,  87,  88,  89,  90,  91,  92,  93,  94,  95,  96
  97,  98,  99, 100, 101, 102, 103, 104, 105, 106, 107, 108, 109, 110, 111, 112
 113, 114, 115, 116, 117, 118, 119, 120, 121, 122, 123, 138, 139, 140, 141, 142
 143, 144, 145, 146, 147, 148, 149, 150, 151, 152, 153, 154, 155, 156, 157, 158
 159, 160, 161, 162, 163, 164, 165, 166, 167, 168, 169, 170, 171, 172, 173, 174
 175, 176, 177, 178, 179, 180, 181, 182, 183, 184, 185, 186, 187, 188, 189, 190
 191, 192, 193, 194, 195, 196, 197, 198, 199, 200, 201, 202, 203, 204, 205, 206
 207, 208, 209, 210, 211, 212, 213, 214, 215, 216, 217, 218, 219, 220, 221, 222
 223, 224, 225, 226, 227, 228, 229, 230, 231, 232, 233, 234, 235, 236, 237, 238
 239, 240, 241, 242, 243, 244, 245, 246, 247, 248, 249, 250, 251, 252, 253, 254
 255, 256, 257, 258, 259, 260, 261, 262, 263, 264, 265, 266, 267, 268, 269, 270
 271, 272, 273, 274, 275, 276, 277, 278, 279, 280, 281, 282, 283, 284, 285, 286
 287, 288, 289, 290, 291, 292, 293, 294, 295, 296, 297, 298, 299, 300, 301, 302
 303, 304, 305, 306, 307, 308, 309, 310, 311, 312, 313, 314, 315, 316, 317, 318
 319, 320, 321, 322, 323, 324, 325, 326, 327, 328, 329, 330, 331, 332, 333, 334
** ... 20 like lines cut
*Elset, elset=column-1_Set-1
   1,   2,   3,   4,   5,   6,   7,   8,   9,  10,  11,  12,  13,  14,  15,  16
  17,  18,  19,  20,  21,  22,  23,  24,  25,  26,  27,  28,  29,  30,  31,  32
  33,  34,  35,  36,  37,  38,  39,  40,  41,  42,  43,  44,  45,  46,  47,  48
  49,  50,  51,  52,  53,  54,  55,  56,  57,  58,  59,  60,  61,  62,  63,  64
  65,  66,  67,  68,  69,  70,  71,  72,  73,  74,  75,  76,  77,  78,  79,  80
  81,  82,  83,  84,  85,  86,  87,  88,  89,  90,  91,  92,  93,  94,  95,  96
  97,  98,  99, 100, 101, 102, 103, 104, 105, 106, 107, 108, 109, 110, 111, 112
 113, 114, 115, 116, 117, 118, 119, 120, 121, 122, 123, 124, 125, 126, 127, 128
 129, 130, 131, 132, 133, 134, 135, 136, 137, 138, 139, 140, 141, 142, 143, 144
 145, 146, 147, 148, 149, 150, 151, 152, 153, 154, 155, 156, 157, 158, 159, 160
 161, 162, 163, 164, 165, 166, 167, 168, 169, 170, 171, 172, 173, 174, 175, 176
 177, 178, 179, 180, 181, 182, 183, 184, 185, 186, 187, 188, 189, 190, 191, 192
 193, 194, 195, 196, 197, 198, 199, 200, 201, 202, 203, 204, 205, 206, 207, 208
 209, 210, 211, 212, 213, 214, 215, 216, 217, 218, 219, 220, 221, 222, 223, 224
 225, 226, 227, 228, 229, 230, 231, 232, 233, 234, 235, 236, 237, 238, 239, 240
 241, 242, 243, 244, 245, 246, 247, 248, 249, 250, 251, 252, 253, 254, 255, 256
 257, 258, 259, 260, 261, 262, 263, 264, 265, 266, 267, 268, 269, 270, 271, 272
 545, 546, 547, 548, 549, 550, 551, 552, 553, 554, 555, 556, 557, 558, 559, 560
 561, 562, 563, 564, 565, 566, 567, 568, 569, 570, 571, 572, 573, 574, 575, 576
 577, 578, 579, 580, 581, 582, 583, 584, 585, 586, 587, 588, 589, 590, 591, 592
** ... 14 like lines cut
*Nset, nset=column-1_Set-2
   1,   2,   7,   8,  13,  14,  15,  16,  17,  18,  19,  20,  21,  22,  23,  24
  25,  26,  27,  28,  29,  30,  31,  32,  33,  34,  35,  36,  37,  38,  39,  40
  41,  42,  43,  44,  45, 124, 125, 126, 127, 128, 129, 130, 131, 132, 133, 134
 135, 136, 137, 138, 139, 140, 141, 142, 143, 144, 145, 146, 147, 148, 149, 150
 151, 152, 153, 154, 155, 156, 157, 158, 159, 160, 161, 162, 163, 164, 165, 166
 167, 168, 169, 170, 447, 448, 449, 450, 451, 452, 453, 454, 455, 456, 457, 458
 459, 460, 461, 462, 463, 464, 465, 466, 467, 468, 469, 470, 471, 472, 473, 474
 475, 476, 477, 478, 479, 480, 481, 482, 483, 484, 485, 486, 487, 488, 489, 490
 491, 492, 493, 494, 495, 496, 497, 498, 499, 500, 501, 502, 503, 504, 505, 506
 507, 508, 509, 510, 511, 512, 513, 514, 515, 516, 517, 518, 519, 520, 521, 522
 523, 524, 525, 526, 527, 528, 529, 530, 531, 532, 533, 534, 535, 536, 537, 538
 539, 540, 541, 542, 543, 544, 545, 546, 547, 548, 549, 550, 551, 552, 553, 554
 555, 556, 557, 558, 559, 560, 561, 562, 563, 564, 565, 566, 567, 568, 569, 570
 571, 572, 573, 574, 575, 576, 577, 578, 579, 580, 581, 582, 583, 584, 585, 586
 587, 588, 589, 590, 591, 592, 593, 594, 595, 596, 597, 598, 599, 600, 601, 602
 603, 604, 605, 606, 607, 608, 609, 610, 611, 612, 613, 614, 615, 616, 617, 618
 619, 620, 621, 622, 623, 624, 625, 626, 627, 628, 629, 630, 631, 632, 633, 634
 635, 636, 637, 638, 639, 640, 641, 642, 643, 644, 645, 646, 647, 648, 649, 650
 651, 652, 653, 654, 655, 656, 657, 658, 659, 660, 661, 662, 663, 664, 665, 666
 667, 668, 669, 670, 671, 672, 673, 674, 675, 676, 677
*Elset, elset=column-1_Set-2, generate
 273,  544,    1
*Nset, nset=column-1_top_interf
   1,   4,   5,   7,   9,  12,  82,  83,  84,  85,  86,  87, 124, 125, 126, 127
 128, 129, 130, 171, 172, 173, 246, 247, 248
*Elset, elset=column-1_top_interf
   1,  35,  69, 103, 170, 204, 238, 272, 273, 274, 275, 276, 277, 278, 279, 280
 578, 612, 646, 680, 681, 715, 749, 783
*Nset, nset=column-1_bot_interf
   2,   3,   6,   8,  10,  11,  46,  47,  48, 121, 122, 123, 131, 132, 133, 134
 135, 136, 137, 207, 208, 209, 210, 211, 212
*Elset, elset=column-1_bot_interf
  34,  68, 102, 136, 137, 171, 205, 239, 537, 538, 539, 540, 541, 542, 543, 544
 545, 579, 613, 647, 714, 748, 782, 816
*Nset, nset=column-1_all_nodes, generate
   1,  875,    1
*Elset, elset=column-1_all_nodes, generate
   1,  816,    1
** Section: col_flange
*Shell Section, elset=column-1_Set-1, material=steel_sac-avg
72.4, 5
** Section: col_web
*Shell Section, elset=column-1_Set-2, material=steel_sac-avg
45., 5
** ----------------------------------------------------------------
** 
** PART INSTANCE: beam-1
** 
*System
          0.,      -196.3,       1854.,          1.,      -196.3,       1854.
          0.,      -196.3,       1855.
*Node
    876,        152.5,  -444.049988,         200.
    877,           0.,  -444.049988,         200.
    878,           0.,  -444.049988,           0.
    879,        152.5,  -444.049988,           0.
    880,        152.5,   444.049988,         200.
    881,           0.,   444.049988,         200.
    882,           0.,   444.049988,           0.
    883,        152.5,   444.049988,           0.
    884,       -152.5,  -444.049988,         200.
    885,       -152.5,  -444.049988,           0.
    886,       -152.5,   444.049988,         200.
    887,       -152.5,   444.049988,           0.
    888,       -152.5,  -444.049988,         950.
    889,           0.,  -444.049988,         950.
    890,           0.,  -444.049988,        1300.
    891,       -152.5,  -444.049988,        1300.
    892,        152.5,  -444.049988,   914.501343
    893,        152.5,  -444.049988,         950.
    894,        152.5,  -444.049988,   228.498627
    895,           0.,   444.049988,         950.
** ... 1282 like lines cut
*Element, type=S4R
817,  876,  908, 1228,  917
818,  908,  909, 1229, 1228
819,  909,  877,  910, 1229
820,  917, 1228, 1230,  916
821, 1228, 1229, 1231, 1230
822, 1229,  910,  911, 1231
823,  916, 1230, 1232,  915
824, 1230, 1231, 1233, 1232
825, 1231,  911,  912, 1233
826,  915, 1232,  914,  879
827, 1232, 1233,  913,  914
828, 1233,  912,  878,  913
829,  880,  918, 1234,  927
830,  918,  919, 1235, 1234
831,  919,  881,  920, 1235
832,  927, 1234, 1236,  926
833, 1234, 1235, 1237, 1236
834, 1235,  920,  921, 1237
835,  926, 1236, 1238,  925
836, 1236, 1237, 1239, 1238
** ... 1210 like lines cut
*Nset, nset=beam-1_Set-1
  876,  877,  878,  879,  880,  881,  882,  883,  884,  885,  886,  887,  888,  889,  890,  891
  892,  893,  894,  895,  896,  897,  898,  899,  900,  901,  902,  903,  904,  905,  906,  907
  908,  909,  910,  911,  912,  913,  914,  915,  916,  917,  918,  919,  920,  921,  922,  923
  924,  925,  926,  927,  928,  929,  930,  931,  932,  933,  934,  969,  970,  971,  972,  973
  974,  975,  976,  977,  978,  979,  980,  981,  982,  983,  984,  985,  986,  987,  988,  989
  990,  991,  992,  993,  994,  995,  996,  997,  998,  999, 1000, 1001, 1002, 1003, 1004, 1005
 1006, 1007, 1008, 1009, 1010, 1011, 1012, 1013, 1014, 1015, 1016, 1017, 1018, 1019, 1020, 1021
 1022, 1023, 1024, 1025, 1026, 1027, 1028, 1029, 1030, 1031, 1032, 1033, 1034, 1035, 1036, 1037
 1038, 1039, 1040, 1041, 1042, 1043, 1044, 1045, 1046, 1047, 1048, 1049, 1067, 1068, 1069, 1070
 1071, 1072, 1090, 1091, 1092, 1093, 1094, 1095, 1096, 1097, 1098, 1099, 1100, 1101, 1102, 1103
 1104, 1105, 1106, 1107, 1108, 1109, 1110, 1111, 1112, 1113, 1114, 1115, 1116, 1117, 1118, 1119
 1120, 1121, 1122, 1123, 1124, 1125, 1126, 1127, 1128, 1129, 1130, 1131, 1132, 1133, 1134, 1135
 1136, 1137, 1138, 1139, 1140, 1141, 1142, 1143, 1144, 1145, 1146, 1147, 1148, 1149, 1150, 1151
 1152, 1153, 1154, 1155, 1156, 1157, 1158, 1159, 1160, 1161, 1162, 1163, 1164, 1165, 1166, 1167
 1168, 1169, 1170, 1171, 1172, 1173, 1174, 1175, 1176, 1177, 1178, 1179, 1180, 1181, 1182, 1183
 1184, 1185, 1186, 1187, 1188, 1189, 1190, 1191, 1192, 1193, 1194, 1195, 1196, 1197, 1198, 1199
 1200, 1201, 1202, 1203, 1204, 1205, 1206, 1207, 1208, 1209, 1210, 1211, 1212, 1213, 1214, 1215
 1216, 1217, 1218, 1219, 1220, 1221, 1222, 1223, 1224, 1225, 1226, 1227, 1228, 1229, 1230, 1231
 1232, 1233, 1234, 1235, 1236, 1237, 1238, 1239, 1240, 1241, 1242, 1243, 1244, 1245, 1297, 1298
 1299, 1300, 1301, 1302, 1303, 1304, 1305, 1306, 1307, 1308, 1309, 1310, 1311, 1312, 1313, 1314
** ... 17 like lines cut
*Elset, elset=beam-1_Set-1
  817,  818,  819,  820,  821,  822,  823,  824,  825,  826,  827,  828,  829,  830,  831,  832
  833,  834,  835,  836,  837,  838,  839,  840,  841,  842,  843,  844,  845,  846,  847,  848
  849,  850,  851,  852,  925,  926,  927,  928,  929,  930,  931,  932,  933,  934,  935,  936
  937,  938,  939,  940,  941,  942,  943,  944,  945,  946,  947,  948,  949,  950,  951,  952
  953,  954,  955,  956,  957,  958,  959,  960,  961,  962,  963,  964,  965,  966,  967,  968
  969,  970,  971,  972,  973,  974,  975,  976,  977,  978,  979,  980,  981,  982,  983,  984
  985,  986,  987,  988,  989,  990,  991,  992,  993,  994,  995,  996,  997,  998,  999, 1000
 1001, 1002, 1003, 1004, 1005, 1006, 1007, 1008, 1009, 1010, 1011, 1012, 1013, 1014, 1015, 1016
 1017, 1018, 1019, 1020, 1021, 1022, 1023, 1024, 1025, 1026, 1027, 1028, 1029, 1030, 1031, 1032
 1033, 1034, 1035, 1036, 1037, 1038, 1039, 1040, 1041, 1042, 1043, 1044, 1045, 1046, 1047, 1174
 1175, 1176, 1177, 1178, 1179, 1180, 1181, 1182, 1183, 1184, 1185, 1186, 1187, 1188, 1189, 1190
 1191, 1192, 1193, 1194, 1195, 1196, 1197, 1198, 1199, 1200, 1201, 1202, 1203, 1204, 1205, 1206
 1207, 1208, 1209, 1210, 1211, 1212, 1213, 1214, 1215, 1216, 1217, 1218, 1219, 1220, 1221, 1222
 1223, 1224, 1225, 1226, 1227, 1228, 1229, 1230, 1231, 1232, 1233, 1234, 1235, 1236, 1237, 1238
 1239, 1240, 1241, 1242, 1243, 1244, 1245, 1246, 1247, 1248, 1249, 1250, 1251, 1252, 1253, 1254
 1255, 1256, 1257, 1258, 1259, 1260, 1261, 1262, 1263, 1264, 1265, 1266, 1267, 1268, 1269, 1270
 1271, 1272, 1273, 1274, 1275, 1276, 1277, 1278, 1279, 1280, 1281, 1282, 1283, 1284, 1285, 1286
 1287, 1288, 1289, 1290, 1291, 1292, 1293, 1294, 1295, 1296, 1297, 1298, 1299, 1300, 1301, 1302
 1303, 1304, 1305, 1306, 1307, 1308, 1309, 1310, 1311, 1312, 1313, 1314, 1315, 1316, 1317, 1318
 1319, 1320, 1321, 1322, 1323, 1324, 1325, 1326, 1327, 1328, 1329, 1330, 1331, 1332, 1333, 1334
** ... 11 like lines cut
*Nset, nset=beam-1_Set-2
  877,  878,  881,  882,  889,  890,  895,  896,  910,  911,  912,  920,  921,  922,  935,  936
  937,  938,  939,  940,  941,  942,  943,  944,  945,  946,  947,  948,  949,  950,  951,  952
  953,  954,  955,  956,  957,  958,  959,  960,  961,  962,  963,  964,  965,  966,  967,  968
  978,  979,  980,  981,  982,  983,  994,  995,  996,  997,  998,  999, 1000, 1001, 1002, 1003
 1004, 1005, 1006, 1007, 1008, 1009, 1010, 1011, 1012, 1013, 1014, 1015, 1016, 1017, 1018, 1019
 1020, 1021, 1022, 1050, 1051, 1052, 1053, 1054, 1055, 1056, 1057, 1058, 1059, 1060, 1061, 1062
 1063, 1064, 1065, 1066, 1067, 1068, 1069, 1070, 1071, 1072, 1073, 1074, 1075, 1076, 1077, 1078
 1079, 1080, 1081, 1082, 1083, 1084, 1085, 1086, 1087, 1088, 1089, 1092, 1093, 1094, 1095, 1096
 1097, 1098, 1099, 1100, 1101, 1102, 1103, 1104, 1105, 1106, 1107, 1108, 1109, 1110, 1111, 1112
 1113, 1114, 1115, 1116, 1117, 1118, 1119, 1120, 1246, 1247, 1248, 1249, 1250, 1251, 1252, 1253
 1254, 1255, 1256, 1257, 1258, 1259, 1260, 1261, 1262, 1263, 1264, 1265, 1266, 1267, 1268, 1269
 1270, 1271, 1272, 1273, 1274, 1275, 1276, 1277, 1278, 1279, 1280, 1281, 1282, 1283, 1284, 1285
 1286, 1287, 1288, 1289, 1290, 1291, 1292, 1293, 1294, 1295, 1296, 1373, 1374, 1375, 1376, 1377
 1378, 1379, 1380, 1381, 1382, 1383, 1384, 1385, 1386, 1387, 1388, 1389, 1390, 1391, 1392, 1393
 1394, 1395, 1396, 1397, 1398, 1399, 1400, 1401, 1402, 1403, 1404, 1405, 1406, 1407, 1408, 1409
 1410, 1411, 1412, 1413, 1414, 1415, 1416, 1417, 1418, 1419, 1420, 1421, 1422, 1423, 1424, 1425
 1426, 1427, 1428, 1429, 1430, 1431, 1432, 1433, 1434, 1435, 1436, 1437, 1438, 1439, 1440, 1441
 1442, 1443, 1444, 1445, 1446, 1447, 1448, 1449, 1450, 1451, 1452, 1453, 1454, 1455, 1456, 1457
 1458, 1459, 1460, 1461, 1462, 1463, 1464, 1465, 1466, 1467, 1468, 1469, 1470, 1471, 1472, 1473
 1474, 1661, 1662, 1663, 1664, 1665, 1666, 1667, 1668, 1669, 1670, 1671, 1672, 1673, 1674, 1675
** ... 30 like lines cut
*Elset, elset=beam-1_Set-2
  853,  854,  855,  856,  857,  858,  859,  860,  861,  862,  863,  864,  865,  866,  867,  868
  869,  870,  871,  872,  873,  874,  875,  876,  877,  878,  879,  880,  881,  882,  883,  884
  885,  886,  887,  888,  889,  890,  891,  892,  893,  894,  895,  896,  897,  898,  899,  900
  901,  902,  903,  904,  905,  906,  907,  908,  909,  910,  911,  912,  913,  914,  915,  916
  917,  918,  919,  920,  921,  922,  923,  924, 1048, 1049, 1050, 1051, 1052, 1053, 1054, 1055
 1056, 1057, 1058, 1059, 1060, 1061, 1062, 1063, 1064, 1065, 1066, 1067, 1068, 1069, 1070, 1071
 1072, 1073, 1074, 1075, 1076, 1077, 1078, 1079, 1080, 1081, 1082, 1083, 1084, 1085, 1086, 1087
 1088, 1089, 1090, 1091, 1092, 1093, 1094, 1095, 1096, 1097, 1098, 1099, 1100, 1101, 1102, 1103
 1104, 1105, 1106, 1107, 1108, 1109, 1110, 1111, 1112, 1113, 1114, 1115, 1116, 1117, 1118, 1119
 1120, 1121, 1122, 1123, 1124, 1125, 1126, 1127, 1128, 1129, 1130, 1131, 1132, 1133, 1134, 1135
 1136, 1137, 1138, 1139, 1140, 1141, 1142, 1143, 1144, 1145, 1146, 1147, 1148, 1149, 1150, 1151
 1152, 1153, 1154, 1155, 1156, 1157, 1158, 1159, 1160, 1161, 1162, 1163, 1164, 1165, 1166, 1167
 1168, 1169, 1170, 1171, 1172, 1173, 1465, 1466, 1467, 1468, 1469, 1470, 1471, 1472, 1473, 1474
 1475, 1476, 1477, 1478, 1479, 1480, 1481, 1482, 1483, 1484, 1485, 1486, 1487, 1488, 1489, 1490
 1491, 1492, 1493, 1494, 1495, 1496, 1497, 1498, 1499, 1500, 1501, 1502, 1503, 1504, 1505, 1506
 1507, 1508, 1509, 1510, 1511, 1512, 1513, 1514, 1515, 1516, 1517, 1518, 1519, 1520, 1521, 1522
 1523, 1524, 1525, 1526, 1527, 1528, 1529, 1530, 1531, 1532, 1533, 1534, 1535, 1536, 1537, 1538
 1539, 1540, 1541, 1542, 1543, 1544, 1545, 1546, 1547, 1548, 1549, 1550, 1551, 1552, 1553, 1554
 1555, 1556, 1557, 1558, 1559, 1560, 1561, 1562, 1563, 1564, 1565, 1566, 1567, 1568, 1569, 1570
 1571, 1572, 1573, 1574, 1575, 1576, 1577, 1578, 1579, 1580, 1581, 1582, 1583, 1584, 1585, 1586
** ... 27 like lines cut
*Nset, nset=beam-1_beam_col_interf
878,879,882,883,885,887,913,914,923,924,933,934,952,953,954,955
956,957,958,959,960,961,962,963,964,965,966,967,968,974,975
*Elset, elset=beam-1_beam_col_interf
 826, 827, 828, 838, 839, 840, 850, 851, 852, 907, 908, 909, 910, 911, 912, 913
 914, 915, 916, 917, 918, 919, 920, 921, 922, 923, 924, 934, 935, 936
*Nset, nset=beam-1_beam_couple_interf
 890, 891, 896, 905, 906, 907, 984, 985,1073,1074,1075,1076,1077,1078,1079,1080
1081,1082,1083,1084,1085,1086,1087,1088,1089,1204,1205,1218,1219,1226,1227
*Elset, elset=beam-1_beam_couple_interf
  955,  956,  957, 1156, 1157, 1158, 1159, 1160, 1161, 1162, 1163, 1164, 1165, 1166, 1167, 1168
 1169, 1170, 1171, 1172, 1173, 1462, 1463, 1464, 2023, 2024, 2025, 2044, 2045, 2046
*Nset, nset=beam-1_all_nodes, generate
  876,  2177,     1
*Elset, elset=beam-1_all_nodes, generate
  817,  2046,     1
** Section: beam_flange
*Shell Section, elset=beam-1_Set-1, material=steel_sac-avg
23.9, 5
** Section: beam_web
*Shell Section, elset=beam-1_Set-2, material=steel_sac-avg
15.9, 5
** ----------------------------------------------------------------
** 
** PART INSTANCE: beam-2
** 
*System
          0.,       196.3,       1854.,          1.,       196.3,       1854.
          0.,       196.3,       1853.
*Node
   2178,        152.5,  -444.049988,         200.
   2179,           0.,  -444.049988,         200.
   2180,           0.,  -444.049988,           0.
   2181,        152.5,  -444.049988,           0.
   2182,        152.5,   444.049988,         200.
   2183,           0.,   444.049988,         200.
   2184,           0.,   444.049988,           0.
   2185,        152.5,   444.049988,           0.
   2186,       -152.5,  -444.049988,         200.
   2187,       -152.5,  -444.049988,           0.
   2188,       -152.5,   444.049988,         200.
   2189,       -152.5,   444.049988,           0.
   2190,       -152.5,  -444.049988,         950.
   2191,           0.,  -444.049988,         950.
   2192,           0.,  -444.049988,        1300.
   2193,       -152.5,  -444.049988,        1300.
   2194,        152.5,  -444.049988,   914.501343
   2195,        152.5,  -444.049988,         950.
   2196,        152.5,  -444.049988,   228.498627
   2197,           0.,   444.049988,         950.
** ... 1282 like lines cut
*Element, type=S4R
2047, 2178, 2210, 2530, 2219
2048, 2210, 2211, 2531, 2530
2049, 2211, 2179, 2212, 2531
2050, 2219, 2530, 2532, 2218
2051, 2530, 2531, 2533, 2532
2052, 2531, 2212, 2213, 2533
2053, 2218, 2532, 2534, 2217
2054, 2532, 2533, 2535, 2534
2055, 2533, 2213, 2214, 2535
2056, 2217, 2534, 2216, 2181
2057, 2534, 2535, 2215, 2216
2058, 2535, 2214, 2180, 2215
2059, 2182, 2220, 2536, 2229
2060, 2220, 2221, 2537, 2536
2061, 2221, 2183, 2222, 2537
2062, 2229, 2536, 2538, 2228
2063, 2536, 2537, 2539, 2538
2064, 2537, 2222, 2223, 2539
2065, 2228, 2538, 2540, 2227
2066, 2538, 2539, 2541, 2540
** ... 1210 like lines cut
*Nset, nset=beam-2_Set-1
 2178, 2179, 2180, 2181, 2182, 2183, 2184, 2185, 2186, 2187, 2188, 2189, 2190, 2191, 2192, 2193
 2194, 2195, 2196, 2197, 2198, 2199, 2200, 2201, 2202, 2203, 2204, 2205, 2206, 2207, 2208, 2209
 2210, 2211, 2212, 2213, 2214, 2215, 2216, 2217, 2218, 2219, 2220, 2221, 2222, 2223, 2224, 2225
 2226, 2227, 2228, 2229, 2230, 2231, 2232, 2233, 2234, 2235, 2236, 2271, 2272, 2273, 2274, 2275
 2276, 2277, 2278, 2279, 2280, 2281, 2282, 2283, 2284, 2285, 2286, 2287, 2288, 2289, 2290, 2291
 2292, 2293, 2294, 2295, 2296, 2297, 2298, 2299, 2300, 2301, 2302, 2303, 2304, 2305, 2306, 2307
 2308, 2309, 2310, 2311, 2312, 2313, 2314, 2315, 2316, 2317, 2318, 2319, 2320, 2321, 2322, 2323
 2324, 2325, 2326, 2327, 2328, 2329, 2330, 2331, 2332, 2333, 2334, 2335, 2336, 2337, 2338, 2339
 2340, 2341, 2342, 2343, 2344, 2345, 2346, 2347, 2348, 2349, 2350, 2351, 2369, 2370, 2371, 2372
 2373, 2374, 2392, 2393, 2394, 2395, 2396, 2397, 2398, 2399, 2400, 2401, 2402, 2403, 2404, 2405
 2406, 2407, 2408, 2409, 2410, 2411, 2412, 2413, 2414, 2415, 2416, 2417, 2418, 2419, 2420, 2421
 2422, 2423, 2424, 2425, 2426, 2427, 2428, 2429, 2430, 2431, 2432, 2433, 2434, 2435, 2436, 2437
 2438, 2439, 2440, 2441, 2442, 2443, 2444, 2445, 2446, 2447, 2448, 2449, 2450, 2451, 2452, 2453
 2454, 2455, 2456, 2457, 2458, 2459, 2460, 2461, 2462, 2463, 2464, 2465, 2466, 2467, 2468, 2469
 2470, 2471, 2472, 2473, 2474, 2475, 2476, 2477, 2478, 2479, 2480, 2481, 2482, 2483, 2484, 2485
 2486, 2487, 2488, 2489, 2490, 2491, 2492, 2493, 2494, 2495, 2496, 2497, 2498, 2499, 2500, 2501
 2502, 2503, 2504, 2505, 2506, 2507, 2508, 2509, 2510, 2511, 2512, 2513, 2514, 2515, 2516, 2517
 2518, 2519, 2520, 2521, 2522, 2523, 2524, 2525, 2526, 2527, 2528, 2529, 2530, 2531, 2532, 2533
 2534, 2535, 2536, 2537, 2538, 2539, 2540, 2541, 2542, 2543, 2544, 2545, 2546, 2547, 2599, 2600
 2601, 2602, 2603, 2604, 2605, 2606, 2607, 2608, 2609, 2610, 2611, 2612, 2613, 2614, 2615, 2616
** ... 17 like lines cut
*Elset, elset=beam-2_Set-1
 2047, 2048, 2049, 2050, 2051, 2052, 2053, 2054, 2055, 2056, 2057, 2058, 2059, 2060, 2061, 2062
 2063, 2064, 2065, 2066, 2067, 2068, 2069, 2070, 2071, 2072, 2073, 2074, 2075, 2076, 2077, 2078
 2079, 2080, 2081, 2082, 2155, 2156, 2157, 2158, 2159, 2160, 2161, 2162, 2163, 2164, 2165, 2166
 2167, 2168, 2169, 2170, 2171, 2172, 2173, 2174, 2175, 2176, 2177, 2178, 2179, 2180, 2181, 2182
 2183, 2184, 2185, 2186, 2187, 2188, 2189, 2190, 2191, 2192, 2193, 2194, 2195, 2196, 2197, 2198
 2199, 2200, 2201, 2202, 2203, 2204, 2205, 2206, 2207, 2208, 2209, 2210, 2211, 2212, 2213, 2214
 2215, 2216, 2217, 2218, 2219, 2220, 2221, 2222, 2223, 2224, 2225, 2226, 2227, 2228, 2229, 2230
 2231, 2232, 2233, 2234, 2235, 2236, 2237, 2238, 2239, 2240, 2241, 2242, 2243, 2244, 2245, 2246
 2247, 2248, 2249, 2250, 2251, 2252, 2253, 2254, 2255, 2256, 2257, 2258, 2259, 2260, 2261, 2262
 2263, 2264, 2265, 2266, 2267, 2268, 2269, 2270, 2271, 2272, 2273, 2274, 2275, 2276, 2277, 2404
 2405, 2406, 2407, 2408, 2409, 2410, 2411, 2412, 2413, 2414, 2415, 2416, 2417, 2418, 2419, 2420
 2421, 2422, 2423, 2424, 2425, 2426, 2427, 2428, 2429, 2430, 2431, 2432, 2433, 2434, 2435, 2436
 2437, 2438, 2439, 2440, 2441, 2442, 2443, 2444, 2445, 2446, 2447, 2448, 2449, 2450, 2451, 2452
 2453, 2454, 2455, 2456, 2457, 2458, 2459, 2460, 2461, 2462, 2463, 2464, 2465, 2466, 2467, 2468
 2469, 2470, 2471, 2472, 2473, 2474, 2475, 2476, 2477, 2478, 2479, 2480, 2481, 2482, 2483, 2484
 2485, 2486, 2487, 2488, 2489, 2490, 2491, 2492, 2493, 2494, 2495, 2496, 2497, 2498, 2499, 2500
 2501, 2502, 2503, 2504, 2505, 2506, 2507, 2508, 2509, 2510, 2511, 2512, 2513, 2514, 2515, 2516
 2517, 2518, 2519, 2520, 2521, 2522, 2523, 2524, 2525, 2526, 2527, 2528, 2529, 2530, 2531, 2532
 2533, 2534, 2535, 2536, 2537, 2538, 2539, 2540, 2541, 2542, 2543, 2544, 2545, 2546, 2547, 2548
 2549, 2550, 2551, 2552, 2553, 2554, 2555, 2556, 2557, 2558, 2559, 2560, 2561, 2562, 2563, 2564
** ... 11 like lines cut
*Nset, nset=beam-2_Set-2
 2179, 2180, 2183, 2184, 2191, 2192, 2197, 2198, 2212, 2213, 2214, 2222, 2223, 2224, 2237, 2238
 2239, 2240, 2241, 2242, 2243, 2244, 2245, 2246, 2247, 2248, 2249, 2250, 2251, 2252, 2253, 2254
 2255, 2256, 2257, 2258, 2259, 2260, 2261, 2262, 2263, 2264, 2265, 2266, 2267, 2268, 2269, 2270
 2280, 2281, 2282, 2283, 2284, 2285, 2296, 2297, 2298, 2299, 2300, 2301, 2302, 2303, 2304, 2305
 2306, 2307, 2308, 2309, 2310, 2311, 2312, 2313, 2314, 2315, 2316, 2317, 2318, 2319, 2320, 2321
 2322, 2323, 2324, 2352, 2353, 2354, 2355, 2356, 2357, 2358, 2359, 2360, 2361, 2362, 2363, 2364
 2365, 2366, 2367, 2368, 2369, 2370, 2371, 2372, 2373, 2374, 2375, 2376, 2377, 2378, 2379, 2380
 2381, 2382, 2383, 2384, 2385, 2386, 2387, 2388, 2389, 2390, 2391, 2394, 2395, 2396, 2397, 2398
 2399, 2400, 2401, 2402, 2403, 2404, 2405, 2406, 2407, 2408, 2409, 2410, 2411, 2412, 2413, 2414
 2415, 2416, 2417, 2418, 2419, 2420, 2421, 2422, 2548, 2549, 2550, 2551, 2552, 2553, 2554, 2555
 2556, 2557, 2558, 2559, 2560, 2561, 2562, 2563, 2564, 2565, 2566, 2567, 2568, 2569, 2570, 2571
 2572, 2573, 2574, 2575, 2576, 2577, 2578, 2579, 2580, 2581, 2582, 2583, 2584, 2585, 2586, 2587
 2588, 2589, 2590, 2591, 2592, 2593, 2594, 2595, 2596, 2597, 2598, 2675, 2676, 2677, 2678, 2679
 2680, 2681, 2682, 2683, 2684, 2685, 2686, 2687, 2688, 2689, 2690, 2691, 2692, 2693, 2694, 2695
 2696, 2697, 2698, 2699, 2700, 2701, 2702, 2703, 2704, 2705, 2706, 2707, 2708, 2709, 2710, 2711
 2712, 2713, 2714, 2715, 2716, 2717, 2718, 2719, 2720, 2721, 2722, 2723, 2724, 2725, 2726, 2727
 2728, 2729, 2730, 2731, 2732, 2733, 2734, 2735, 2736, 2737, 2738, 2739, 2740, 2741, 2742, 2743
 2744, 2745, 2746, 2747, 2748, 2749, 2750, 2751, 2752, 2753, 2754, 2755, 2756, 2757, 2758, 2759
 2760, 2761, 2762, 2763, 2764, 2765, 2766, 2767, 2768, 2769, 2770, 2771, 2772, 2773, 2774, 2775
 2776, 2963, 2964, 2965, 2966, 2967, 2968, 2969, 2970, 2971, 2972, 2973, 2974, 2975, 2976, 2977
** ... 30 like lines cut
*Elset, elset=beam-2_Set-2
 2083, 2084, 2085, 2086, 2087, 2088, 2089, 2090, 2091, 2092, 2093, 2094, 2095, 2096, 2097, 2098
 2099, 2100, 2101, 2102, 2103, 2104, 2105, 2106, 2107, 2108, 2109, 2110, 2111, 2112, 2113, 2114
 2115, 2116, 2117, 2118, 2119, 2120, 2121, 2122, 2123, 2124, 2125, 2126, 2127, 2128, 2129, 2130
 2131, 2132, 2133, 2134, 2135, 2136, 2137, 2138, 2139, 2140, 2141, 2142, 2143, 2144, 2145, 2146
 2147, 2148, 2149, 2150, 2151, 2152, 2153, 2154, 2278, 2279, 2280, 2281, 2282, 2283, 2284, 2285
 2286, 2287, 2288, 2289, 2290, 2291, 2292, 2293, 2294, 2295, 2296, 2297, 2298, 2299, 2300, 2301
 2302, 2303, 2304, 2305, 2306, 2307, 2308, 2309, 2310, 2311, 2312, 2313, 2314, 2315, 2316, 2317
 2318, 2319, 2320, 2321, 2322, 2323, 2324, 2325, 2326, 2327, 2328, 2329, 2330, 2331, 2332, 2333
 2334, 2335, 2336, 2337, 2338, 2339, 2340, 2341, 2342, 2343, 2344, 2345, 2346, 2347, 2348, 2349
 2350, 2351, 2352, 2353, 2354, 2355, 2356, 2357, 2358, 2359, 2360, 2361, 2362, 2363, 2364, 2365
 2366, 2367, 2368, 2369, 2370, 2371, 2372, 2373, 2374, 2375, 2376, 2377, 2378, 2379, 2380, 2381
 2382, 2383, 2384, 2385, 2386, 2387, 2388, 2389, 2390, 2391, 2392, 2393, 2394, 2395, 2396, 2397
 2398, 2399, 2400, 2401, 2402, 2403, 2695, 2696, 2697, 2698, 2699, 2700, 2701, 2702, 2703, 2704
 2705, 2706, 2707, 2708, 2709, 2710, 2711, 2712, 2713, 2714, 2715, 2716, 2717, 2718, 2719, 2720
 2721, 2722, 2723, 2724, 2725, 2726, 2727, 2728, 2729, 2730, 2731, 2732, 2733, 2734, 2735, 2736
 2737, 2738, 2739, 2740, 2741, 2742, 2743, 2744, 2745, 2746, 2747, 2748, 2749, 2750, 2751, 2752
 2753, 2754, 2755, 2756, 2757, 2758, 2759, 2760, 2761, 2762, 2763, 2764, 2765, 2766, 2767, 2768
 2769, 2770, 2771, 2772, 2773, 2774, 2775, 2776, 2777, 2778, 2779, 2780, 2781, 2782, 2783, 2784
 2785, 2786, 2787, 2788, 2789, 2790, 2791, 2792, 2793, 2794, 2795, 2796, 2797, 2798, 2799, 2800
 2801, 2802, 2803, 2804, 2805, 2806, 2807, 2808, 2809, 2810, 2811, 2812, 2813, 2814, 2815, 2816
** ... 27 like lines cut
*Nset, nset=beam-2_beam_col_interf
2180,2181,2184,2185,2187,2189,2215,2216,2225,2226,2235,2236,2254,2255,2256,2257
2258,2259,2260,2261,2262,2263,2264,2265,2266,2267,2268,2269,2270,2276,2277
*Elset, elset=beam-2_beam_col_interf
2056,2057,2058,2068,2069,2070,2080,2081,2082,2137,2138,2139,2140,2141,2142,2143
2144,2145,2146,2147,2148,2149,2150,2151,2152,2153,2154,2164,2165,2166
*Nset, nset=beam-2_beam_couple_interf
2192,2193,2198,2207,2208,2209,2286,2287,2375,2376,2377,2378,2379,2380,2381,2382
2383,2384,2385,2386,2387,2388,2389,2390,2391,2506,2507,2520,2521,2528,2529
*Elset, elset=beam-2_beam_couple_interf
 2185, 2186, 2187, 2386, 2387, 2388, 2389, 2390, 2391, 2392, 2393, 2394, 2395, 2396, 2397, 2398
 2399, 2400, 2401, 2402, 2403, 2692, 2693, 2694, 3253, 3254, 3255, 3274, 3275, 3276
*Nset, nset=beam-2_all_nodes, generate
 2178,  3479,     1
*Elset, elset=beam-2_all_nodes, generate
 2047,  3276,     1
** Section: beam_flange
*Shell Section, elset=beam-2_Set-1, material=steel_sac-avg
23.9, 5
** Section: beam_web
*Shell Section, elset=beam-2_Set-2, material=steel_sac-avg
15.9, 5
** ----------------------------------------------------------------
** 
** PART INSTANCE: beam-beam_dom-1
** 
*System
          0.,      1496.3,       1854., 3.74939945665464e-33,      1497.3,       1854.
 -6.12323399573677e-17,      1496.3,       1855.
*Node
   3480,           0.,           0.,           0.
   3481,   2417.09595,           0.,           0.
   3482,        2662.,           0.,           0.
   3483,   483.419189,           0.,           0.
   3484,   966.838379,           0.,           0.
   3485,   1450.25757,           0.,           0.
   3486,   1933.67676,           0.,           0.
*Element, type=B31OS
3277, 3480, 3483
3278, 3483, 3484
3279, 3484, 3485
3280, 3485, 3486
3281, 3486, 3481
3282, 3481, 3482
*Nset, nset=beam-beam_dom-1_Set-1, generate
3480, 3486,  1
*Elset, elset=beam-beam_dom-1_Set-1, generate
3277, 3282,  1
*Nset, nset=beam-beam_dom-1_Set-2, generate
3480, 3486,  1
*Elset, elset=beam-beam_dom-1_Set-2, generate
3277, 3282,  1
*Nset, nset=beam-beam_dom-1_roller_nodes
3481,
*Nset, nset=beam-beam_dom-1_beam_end_node
3482,
*Nset, nset=beam-beam_dom-1_interf_node
3480,
*Nset, nset=beam-beam_dom-1_all_nodes, generate
3480, 3486,  1
*Elset, elset=beam-beam_dom-1_all_nodes, generate
3277, 3282,  1
** Section: beam_dom_section  Profile: w36x150
*Beam Section, elset=beam-beam_dom-1_Set-1, material=steel_sac-avg, temperature=GRADIENTS, section=I
456., 912., 305., 305., 23.9, 23.9, 15.9
-1.,0.,-6.12323e-17
** ----------------------------------------------------------------
** 
** PART INSTANCE: beam-beam_dom-2
** 
*System
          0.,     -1496.3,       1854., 3.74939945665464e-33,     -1497.3,       1854.
 6.12323399573677e-17,     -1496.3,       1853.
*Node
   3487,           0.,           0.,           0.
   3488,   2417.09595,           0.,           0.
   3489,        2662.,           0.,           0.
   3490,   483.419189,           0.,           0.
   3491,   966.838379,           0.,           0.
   3492,   1450.25757,           0.,           0.
   3493,   1933.67676,           0.,           0.
*Element, type=B31OS
3283, 3487, 3490
3284, 3490, 3491
3285, 3491, 3492
3286, 3492, 3493
3287, 3493, 3488
3288, 3488, 3489
*Nset, nset=beam-beam_dom-2_Set-1, generate
3487, 3493,  1
*Elset, elset=beam-beam_dom-2_Set-1, generate
3283, 3288,  1
*Nset, nset=beam-beam_dom-2_Set-2, generate
3487, 3493,  1
*Elset, elset=beam-beam_dom-2_Set-2, generate
3283, 3288,  1
*Nset, nset=beam-beam_dom-2_roller_nodes
3488,
*Nset, nset=beam-beam_dom-2_beam_end_node
3489,
*Nset, nset=beam-beam_dom-2_interf_node
3487,
*Nset, nset=beam-beam_dom-2_all_nodes, generate
3487, 3493,  1
*Elset, elset=beam-beam_dom-2_all_nodes, generate
3283, 3288,  1
** Section: beam_dom_section  Profile: w36x150
*Beam Section, elset=beam-beam_dom-2_Set-1, material=steel_sac-avg, temperature=GRADIENTS, section=I
456., 912., 305., 305., 23.9, 23.9, 15.9
-1.,0.,-6.12323e-17
** ----------------------------------------------------------------
** 
** PART INSTANCE: column-beam_dom-1
** 
*System
          0.,          0.,          0., 6.12323399573677e-17,          0.,          1.
          0.,          1.,          0.
*Node
   3494,           0.,           0.,           0.
   3495,   334.666656,           0.,           0.
   3496,   669.333313,           0.,           0.
   3497,        1004.,           0.,           0.
*Element, type=B31OS
3289, 3494, 3495
3290, 3495, 3496
3291, 3496, 3497
*Nset, nset=column-beam_dom-1_Set-1, generate
3494, 3497,  1
*Elset, elset=column-beam_dom-1_Set-1, generate
3289, 3291,  1
*Nset, nset=column-beam_dom-1_Set-2, generate
3494, 3497,  1
*Elset, elset=column-beam_dom-1_Set-2, generate
3289, 3291,  1
*Nset, nset=column-beam_dom-1_top_node
3497,
*Nset, nset=column-beam_dom-1_bot_node
3494,
*Nset, nset=column-beam_dom-1_all_nodes, generate
3494, 3497,  1
*Elset, elset=column-beam_dom-1_all_nodes, generate
3289, 3291,  1
** Section: column_dom_section  Profile: w14x398
*Beam Section, elset=column-beam_dom-1_Set-1, material=steel_sac-avg, temperature=GRADIENTS, section=I
232.5, 465., 422., 422., 72.4, 72.4, 45.
1.,0.,-6.12323e-17
** ----------------------------------------------------------------
** 
** PART INSTANCE: column-beam_dom-3
** 
*System
          0.,          0.,       2704., 6.12323399573677e-17,          0.,       2705.
          0.,          1.,       2704.
*Node
   3498,           0.,           0.,           0.
   3499,   334.666656,           0.,           0.
   3500,   669.333313,           0.,           0.
   3501,        1004.,           0.,           0.
*Element, type=B31OS
3292, 3498, 3499
3293, 3499, 3500
3294, 3500, 3501
*Nset, nset=column-beam_dom-3_Set-1, generate
3498, 3501,  1
*Elset, elset=column-beam_dom-3_Set-1, generate
3292, 3294,  1
*Nset, nset=column-beam_dom-3_Set-2, generate
3498, 3501,  1
*Elset, elset=column-beam_dom-3_Set-2, generate
3292, 3294,  1
*Nset, nset=column-beam_dom-3_top_node
3501,
*Nset, nset=column-beam_dom-3_bot_node
3498,
*Nset, nset=column-beam_dom-3_all_nodes, generate
3498, 3501,  1
*Elset, elset=column-beam_dom-3_all_nodes, generate
3292, 3294,  1
** Section: column_dom_section  Profile: w14x398
*Beam Section, elset=column-beam_dom-3_Set-1, material=steel_sac-avg, temperature=GRADIENTS, section=I
232.5, 465., 422., 422., 72.4, 72.4, 45.
1.,0.,-6.12323e-17
*System
*Node
   3502,  6.14772718e-14,           0.,        3709.
*Element, type=CONN3D2
3295, 3501, 3502
*Connector Section, elset=Wire-1-Set-1, behavior=ConnSect-1
Hinge,
"Datum csys-2",
*Nset, nset=Wire-1-Set-1
3502,
*Nset, nset=Wire-1-Set-1
3501,
*Elset, elset=Wire-1-Set-1
 3295,
*Nset, nset=all_beam_nodes, generate
3480, 3486,  1
*Nset, nset=all_beam_nodes, generate
3487, 3493,  1
*Nset, nset=all_beam_nodes
3502,
*Nset, nset=all_beam_nodes, generate
3494, 3497,  1
*Nset, nset=all_beam_nodes, generate
3498, 3501,  1
*Elset, elset=all_beam_nodes, generate
3277, 3282,  1
*Elset, elset=all_beam_nodes, generate
3283, 3288,  1
*Elset, elset=all_beam_nodes
 3295,
*Elset, elset=all_beam_nodes, generate
3289, 3291,  1
*Elset, elset=all_beam_nodes, generate
3292, 3294,  1
*Nset, nset=beam_corner_nodes
891,905,906,907
*Nset, nset=beam_corner_nodes
2193,2207,2208,2209
*Nset, nset=col_bot
3494,
*Nset, nset=col_top
3501,
*Nset, nset=hinge_node
3502,
*Nset, nset=s_Set-5
878,879,882,883,885,887,913,914,923,924,933,934,952,953,954,955
956,957,958,959,960,961,962,963,964,965,966,967,968,974,975
*Elset, elset=s_Set-5
 826, 827, 828, 838, 839, 840, 850, 851, 852, 907, 908, 909, 910, 911, 912, 913
 914, 915, 916, 917, 918, 919, 920, 921, 922, 923, 924, 934, 935, 936
*Nset, nset=t_Set-3
   1,   4,   5,   7,   9,  12,  82,  83,  84,  85,  86,  87, 124, 125, 126, 127
 128, 129, 130, 171, 172, 173, 246, 247, 248
*Elset, elset=t_Set-3
   1,  35,  69, 103, 170, 204, 238, 272, 273, 274, 275, 276, 277, 278, 279, 280
 578, 612, 646, 680, 681, 715, 749, 783
*Nset, nset=t_Set-4
   2,   3,   6,   8,  10,  11,  46,  47,  48, 121, 122, 123, 131, 132, 133, 134
 135, 136, 137, 207, 208, 209, 210, 211, 212
*Elset, elset=t_Set-4
  34,  68, 102, 136, 137, 171, 205, 239, 537, 538, 539, 540, 541, 542, 543, 544
 545, 579, 613, 647, 714, 748, 782, 816
*Elset, elset=_m_Surf-1_SPOS, generate
   1,  272,    1
*Surface, type=ELEMENT, name=m_Surf-1
_m_Surf-1_SPOS, SPOS
*Elset, elset=_m_Surf-2_SNEG, generate
 545,  816,    1
*Surface, type=ELEMENT, name=m_Surf-2
_m_Surf-2_SNEG, SNEG
*Surface, type=NODE, name=beam-1_beam_col_interf_CNS_
beam-1_beam_col_interf, 1.
*Surface, type=NODE, name=beam-2_beam_col_interf_CNS_
beam-2_beam_col_interf, 1.
*Surface, type=NODE, name=beam-2_beam_couple_interf_CNS_
beam-2_beam_couple_interf, 1.
*Surface, type=NODE, name=beam-1_beam_couple_interf_CNS_
beam-1_beam_couple_interf, 1.
*Surface, type=NODE, name=column-1_bot_interf_CNS_
column-1_bot_interf, 1.
*Surface, type=NODE, name=column-1_top_interf_CNS_
column-1_top_interf, 1.
*Orientation, name="Datum csys-2"
          0.,           0.,           1.,           0.,           1.,           0.
1, 0.
** Constraint: Constraint-3
*Tie, name=Constraint-3, adjust=yes
beam-1_beam_col_interf_CNS_, m_Surf-1
** Constraint: Constraint-3-Copy
*Tie, name=Constraint-3-Copy, adjust=yes
beam-2_beam_col_interf_CNS_, m_Surf-2
** Constraint: beam_couple-1
*Coupling, constraint name=beam_couple-1, ref node=beam-beam_dom-1_interf_node, surface=beam-2_beam_couple_interf_CNS_
*Kinematic
1, 1
2, 2
3, 3
** Constraint: beam_couple-2
*Coupling, constraint name=beam_couple-2, ref node=beam-beam_dom-2_interf_node, surface=beam-1_beam_couple_interf_CNS_
*Kinematic
1, 1
2, 2
3, 3
** Constraint: col_couple-1
*Coupling, constraint name=col_couple-1, ref node=column-beam_dom-1_top_node, surface=column-1_bot_interf_CNS_
*Kinematic
1, 1
2, 2
3, 3
** Constraint: col_couple-2
*Coupling, constraint name=col_couple-2, ref node=column-beam_dom-3_bot_node, surface=column-1_top_interf_CNS_
*Kinematic
1, 1
2, 2
3, 3
*Connector Behavior, name=ConnSect-1
*Connector Elasticity, component=4
 1e+10,
*Amplitude, name=lateral_amp, time=TOTAL TIME, definition=EQUALLY SPACED, fixed interval=1.
             0.,     0.002784348,       5.1271551,     0.150808944,      7.68108827,     12.75919762,     0.442028961,    -6.931781793
   -12.94652249,    -0.410360876,     8.742618913,     12.89386931,     0.094385003,     -6.76835197,    -12.69018989,    -1.092262865
   -1.092413614,     5.281159999,     12.75746801,      0.09116187,    -7.121188958,    -12.33929041,    -0.763583182,     8.224215073
    12.71614234,     0.337136359,     -7.12456919,    -12.69275008,    -1.162503771,     7.019675699,     12.58506183,     0.324143624
   -7.782298888,    -12.34323351,    -1.061486574,      7.28393641,     12.76386538,     0.324291706,     -6.06142425,    -12.39677048
   -0.783291042,    -0.779795494,     7.168502935,      17.3195568,     0.524111982,    -7.568481815,    -17.18614711,    -1.057740201
    8.999902244,     17.21452171,     0.482017578,    -8.100013772,    -17.19314799,    -1.107414219,     9.109984574,     17.18570756
    0.339980905,    -7.514522182,    -16.71729194,    -1.019413125,     8.398640302,     17.09194753,     0.206426181,    -7.307193539
   -16.68170387,    -0.834678798,      7.86626316,     17.44676051,     0.081023587,    -7.979332022,     -16.6718041,    -1.269764161
    8.439383553,     17.21481596,     0.102936421,    -7.398555561,     -16.6744984,    -0.977257126,    -0.977200611,     19.19331379
    25.88343236,     0.310119776,    -13.94225939,    -25.88564076,     -0.42879772,     13.35930818,     26.30146442,     0.358496235
   -13.04560027,     -25.7129741,    -0.782263485,     13.05921417,     26.11881619,     0.435996715,    -13.39995123,    -25.27800215
   -0.690296308,     13.19368342,     26.56044713,     0.405544274,    -12.69198871,    -25.42259228,    -0.992418767,     13.18792244
    26.34826633,    -0.054919118,    -12.96877924,    -25.10218475,    -1.039916767,     12.83031026,     26.17242314,     0.493659033
   -12.77248169,    -25.24140723,    -0.856400497,    -0.856668213,     17.02872172,     32.37350002,     35.55344464,     4.111648622
   -16.86447313,    -27.46744456,    -34.34711787,    -6.608725162,     12.90924596,     31.87173014,     35.62504267,     24.03362973
    6.368958941,    -16.77976032,    -27.06165162,    -34.61752487,    -24.87088142,    -11.41609972,    -6.258612324,     15.36484265
    29.38271365,     35.79868583,     22.57613506,     11.30652539,     5.830961922,    -10.80344601,    -22.62172717,    -34.65968862
   -24.39535532,    -14.86308623,    -6.632564078,     8.562793644,     22.38314002,     35.61271834,     26.06198013,     15.10656948
     6.17522133,    -10.66462574,      -20.777287,    -34.67158788,    -26.79463323,    -16.84422869,    -6.336707418,    -6.336105184
** ... 38 like lines cut
** 
** MATERIALS
** 
*Material, name=elastic
*Elastic
200000., 0.3
*Material, name=steel_flange
*Elastic
200000., 0.3
*Plastic, hardening=COMBINED, datatype=PARAMETERS, number backstresses=2
 318.47,  11608.,  145.22, 1026.33,    4.68
*Cyclic Hardening, parameters
 318.47, 100.72,     8.
*Material, name=steel_sac-avg
*Elastic
207300., 0.3
*Plastic, hardening=COMBINED, datatype=PARAMETERS, number backstresses=1
352., 2305.55,  20.153
*Cyclic Hardening, parameters
352., 61.6014, 8.95688
*Material, name=steel_sac-avg-lowfy
*Elastic
207300., 0.3
*Plastic, hardening=COMBINED, datatype=PARAMETERS, number backstresses=1
320., 2305.55,  20.153
*Cyclic Hardening, parameters
320., 61.6014, 8.95688
*Material, name=steel_web
*Elastic
200000., 0.3
*Plastic, hardening=COMBINED, datatype=PARAMETERS, number backstresses=2
 339.18, 8716.08,  118.47, 1182.05,    5.22
*Cyclic Hardening, parameters
 339.18, 77.52,  9.29
** 
** BOUNDARY CONDITIONS
** 
** Name: beam_lateral_hold1 Type: Displacement/Rotation
*Boundary
beam-beam_dom-1_beam_end_node, 1, 1
** Name: beam_lateral_hold2 Type: Displacement/Rotation
*Boundary
beam-beam_dom-2_beam_end_node, 1, 1
** Name: bot_fix Type: Displacement/Rotation
*Boundary
column-beam_dom-1_bot_node, 1, 1
column-beam_dom-1_bot_node, 2, 2
column-beam_dom-1_bot_node, 3, 3
** Name: roller_support1 Type: Displacement/Rotation
*Boundary
beam-beam_dom-1_roller_nodes, 3, 3
** Name: roller_support2 Type: Displacement/Rotation
*Boundary
beam-beam_dom-2_roller_nodes, 3, 3
** Name: top_fix Type: Displacement/Rotation
*Boundary
hinge_node, 1, 1
hinge_node, 6, 6
*Boundary
col_bot, 7, 7
*Boundary
col_top, 7, 7
*Imperfection, input=DBBW-Macro-KC-LongShell-Imp.txt
** ----------------------------------------------------------------
** 
** STEP: cyclic_loading
** 
*Step, name=cyclic_loading, nlgeom=YES, inc=1000000000
*Static
1., 1., 1e-10, 1.
** 
** BOUNDARY CONDITIONS
** 
** Name: top_disp_control Type: Displacement/Rotation
*Boundary, amplitude=lateral_amp
hinge_node, 2, 2, 1.
** 
** CONTROLS
** 
*Controls, reset
*Controls, parameters=field, field=displacement
0.1, , , , , , , 
** 
** OUTPUT REQUESTS
** 
*Restart, write, frequency=0
** 
** FIELD OUTPUT: F-Output-1
** 
*Output, field, variable=PRESELECT, time interval=1.
** 
** HISTORY OUTPUT: warp_out
** 
*Output, history
*Node Output, nset=all_beam_nodes
WARP, 
** 
** HISTORY OUTPUT: H-Output-1
** 
*Output, history, variable=PRESELECT
*End Step
** ----------------------------------------------------------------
** 
** STEP: cyclic_resetTol
** 
*Step, name=cyclic_resetTol, nlgeom=YES, inc=10000000
*Static
1., 462., 1e-10, 1.
** 
** CONTROLS
** 
*Controls, reset
** 
** OUTPUT REQUESTS
** 
*Restart, write, frequency=0
** 
** FIELD OUTPUT: F-Output-1
** 
*Output, field, variable=PRESELECT, time interval=1.
** 
** HISTORY OUTPUT: warp_out
** 
*Output, history
*Node Output, nset=all_beam_nodes
WARP, 
** 
** HISTORY OUTPUT: H-Output-1
** 
*Output, history, variable=PRESELECT
*End Step
