*Heading
** Job name: DBBW-FlexTop-NoParts Model name: DBBW-FlexTop-NoParts
** Generated by: Abaqus/CAE 6.14-1
*Preprint, echo=NO, model=NO, history=NO, contact=NO
** ----------------------------------------------------------------
** 
** PART INSTANCE: column-1
** 
*Node
      1,           0.,  -196.300003,        3708.
      2,           0.,  -196.300003,           0.
      3,         211.,  -196.300003,           0.
      4,         211.,  -196.300003,        3708.
      5,        -211.,  -196.300003,        3708.
      6,        -211.,  -196.300003,           0.
      7,           0.,   196.300003,        3708.
      8,           0.,   196.300003,           0.
      9,        -211.,   196.300003,        3708.
     10,        -211.,   196.300003,           0.
     11,         211.,   196.300003,           0.
     12,         211.,   196.300003,        3708.
     13,           0.,  -196.300003,   3657.89185
     14,           0.,  -196.300003,   3607.78369
     15,           0.,  -196.300003,   3557.67578
     16,           0.,  -196.300003,   3507.56763
     17,           0.,  -196.300003,   3457.45947
     18,           0.,  -196.300003,   3407.35132
     19,           0.,  -196.300003,   3357.24316
     20,           0.,  -196.300003,   3307.13525
** ... 1855 like lines cut
*Element, type=S4R
  1,   1,  13, 489, 164
  2,  13,  14, 490, 489
  3,  14,  15, 491, 490
  4,  15,  16, 492, 491
  5,  16,  17, 493, 492
  6,  17,  18, 494, 493
  7,  18,  19, 495, 494
  8,  19,  20, 496, 495
  9,  20,  21, 497, 496
 10,  21,  22, 498, 497
 11,  22,  23, 499, 498
 12,  23,  24, 500, 499
 13,  24,  25, 501, 500
 14,  25,  26, 502, 501
 15,  26,  27, 503, 502
 16,  27,  28, 504, 503
 17,  28,  29, 505, 504
 18,  29,  30, 506, 505
 19,  30,  31, 507, 506
 20,  31,  32, 508, 507
** ... 1756 like lines cut
*Nset, nset=column-1_Set-1
    1,    2,    3,    4,    5,    6,    7,    8,    9,   10,   11,   12,   13,   14,   15,   16
   17,   18,   19,   20,   21,   22,   23,   24,   25,   26,   27,   28,   29,   30,   31,   32
   33,   34,   35,   36,   37,   38,   39,   40,   41,   42,   43,   44,   45,   46,   47,   48
   49,   50,   51,   52,   53,   54,   55,   56,   57,   58,   59,   60,   61,   62,   63,   64
   65,   66,   67,   68,   69,   70,   71,   72,   73,   74,   75,   76,   77,   78,   79,   80
   81,   82,   83,   84,   85,   86,   87,   88,   89,   90,   91,   92,   93,   94,   95,   96
   97,   98,   99,  100,  101,  102,  103,  104,  105,  106,  107,  108,  109,  110,  111,  112
  113,  114,  115,  116,  117,  118,  119,  120,  121,  122,  123,  124,  125,  126,  127,  128
  129,  130,  131,  132,  133,  134,  135,  136,  137,  138,  139,  140,  141,  142,  143,  144
  145,  146,  147,  148,  149,  150,  151,  152,  153,  154,  155,  156,  157,  158,  159,  160
  161,  162,  163,  164,  165,  166,  167,  168,  169,  170,  171,  172,  173,  174,  175,  176
  177,  178,  179,  180,  181,  182,  183,  184,  185,  186,  187,  188,  189,  190,  191,  192
  193,  194,  195,  196,  197,  198,  199,  200,  201,  202,  203,  204,  205,  206,  207,  208
  209,  210,  211,  212,  213,  214,  215,  216,  217,  218,  219,  220,  221,  222,  223,  224
  225,  226,  227,  228,  229,  230,  231,  232,  233,  234,  235,  236,  237,  238,  239,  240
  241,  242,  243,  258,  259,  260,  261,  262,  263,  264,  265,  266,  267,  268,  269,  270
  271,  272,  273,  274,  275,  276,  277,  278,  279,  280,  281,  282,  283,  284,  285,  286
  287,  288,  289,  290,  291,  292,  293,  294,  295,  296,  297,  298,  299,  300,  301,  302
  303,  304,  305,  306,  307,  308,  309,  310,  311,  312,  313,  314,  315,  316,  317,  318
  319,  320,  321,  322,  323,  324,  325,  326,  327,  328,  329,  330,  331,  332,  333,  334
** ... 65 like lines cut
*Elset, elset=column-1_Set-1
    1,    2,    3,    4,    5,    6,    7,    8,    9,   10,   11,   12,   13,   14,   15,   16
   17,   18,   19,   20,   21,   22,   23,   24,   25,   26,   27,   28,   29,   30,   31,   32
   33,   34,   35,   36,   37,   38,   39,   40,   41,   42,   43,   44,   45,   46,   47,   48
   49,   50,   51,   52,   53,   54,   55,   56,   57,   58,   59,   60,   61,   62,   63,   64
   65,   66,   67,   68,   69,   70,   71,   72,   73,   74,   75,   76,   77,   78,   79,   80
   81,   82,   83,   84,   85,   86,   87,   88,   89,   90,   91,   92,   93,   94,   95,   96
   97,   98,   99,  100,  101,  102,  103,  104,  105,  106,  107,  108,  109,  110,  111,  112
  113,  114,  115,  116,  117,  118,  119,  120,  121,  122,  123,  124,  125,  126,  127,  128
  129,  130,  131,  132,  133,  134,  135,  136,  137,  138,  139,  140,  141,  142,  143,  144
  145,  146,  147,  148,  149,  150,  151,  152,  153,  154,  155,  156,  157,  158,  159,  160
  161,  162,  163,  164,  165,  166,  167,  168,  169,  170,  171,  172,  173,  174,  175,  176
  177,  178,  179,  180,  181,  182,  183,  184,  185,  186,  187,  188,  189,  190,  191,  192
  193,  194,  195,  196,  197,  198,  199,  200,  201,  202,  203,  204,  205,  206,  207,  208
  209,  210,  211,  212,  213,  214,  215,  216,  217,  218,  219,  220,  221,  222,  223,  224
  225,  226,  227,  228,  229,  230,  231,  232,  233,  234,  235,  236,  237,  238,  239,  240
  241,  242,  243,  244,  245,  246,  247,  248,  249,  250,  251,  252,  253,  254,  255,  256
  257,  258,  259,  260,  261,  262,  263,  264,  265,  266,  267,  268,  269,  270,  271,  272
  273,  274,  275,  276,  277,  278,  279,  280,  281,  282,  283,  284,  285,  286,  287,  288
  289,  290,  291,  292,  293,  294,  295,  296,  297,  298,  299,  300,  301,  302,  303,  304
  305,  306,  307,  308,  309,  310,  311,  312,  313,  314,  315,  316,  317,  318,  319,  320
** ... 54 like lines cut
*Nset, nset=column-1_Set-2
    1,    2,    7,    8,   13,   14,   15,   16,   17,   18,   19,   20,   21,   22,   23,   24
   25,   26,   27,   28,   29,   30,   31,   32,   33,   34,   35,   36,   37,   38,   39,   40
   41,   42,   43,   44,   45,   46,   47,   48,   49,   50,   51,   52,   53,   54,   55,   56
   57,   58,   59,   60,   61,   62,   63,   64,   65,   66,   67,   68,   69,   70,   71,   72
   73,   74,   75,   76,   77,   78,   79,   80,   81,   82,   83,   84,   85,  244,  245,  246
  247,  248,  249,  250,  251,  252,  253,  254,  255,  256,  257,  258,  259,  260,  261,  262
  263,  264,  265,  266,  267,  268,  269,  270,  271,  272,  273,  274,  275,  276,  277,  278
  279,  280,  281,  282,  283,  284,  285,  286,  287,  288,  289,  290,  291,  292,  293,  294
  295,  296,  297,  298,  299,  300,  301,  302,  303,  304,  305,  306,  307,  308,  309,  310
  311,  312,  313,  314,  315,  316,  317,  318,  319,  320,  321,  322,  323,  324,  325,  326
  327,  328,  329,  330,  927,  928,  929,  930,  931,  932,  933,  934,  935,  936,  937,  938
  939,  940,  941,  942,  943,  944,  945,  946,  947,  948,  949,  950,  951,  952,  953,  954
  955,  956,  957,  958,  959,  960,  961,  962,  963,  964,  965,  966,  967,  968,  969,  970
  971,  972,  973,  974,  975,  976,  977,  978,  979,  980,  981,  982,  983,  984,  985,  986
  987,  988,  989,  990,  991,  992,  993,  994,  995,  996,  997,  998,  999, 1000, 1001, 1002
 1003, 1004, 1005, 1006, 1007, 1008, 1009, 1010, 1011, 1012, 1013, 1014, 1015, 1016, 1017, 1018
 1019, 1020, 1021, 1022, 1023, 1024, 1025, 1026, 1027, 1028, 1029, 1030, 1031, 1032, 1033, 1034
 1035, 1036, 1037, 1038, 1039, 1040, 1041, 1042, 1043, 1044, 1045, 1046, 1047, 1048, 1049, 1050
 1051, 1052, 1053, 1054, 1055, 1056, 1057, 1058, 1059, 1060, 1061, 1062, 1063, 1064, 1065, 1066
 1067, 1068, 1069, 1070, 1071, 1072, 1073, 1074, 1075, 1076, 1077, 1078, 1079, 1080, 1081, 1082
** ... 23 like lines cut
*Elset, elset=column-1_Set-2, generate
  593,  1184,     1
*Nset, nset=column-1_all_nodes, generate
    1,  1875,     1
*Elset, elset=column-1_all_nodes, generate
    1,  1776,     1
** Section: col_flange
*Shell Section, elset=column-1_Set-1, material=steel_sac-avg
72.4, 5
** Section: col_web
*Shell Section, elset=column-1_Set-2, material=steel_sac-avg
45., 5
** ----------------------------------------------------------------
** 
** PART INSTANCE: beam-1
** 
*System
          0.,      -196.3,       1854.,          1.,      -196.3,       1854.
          0.,      -196.3,       1855.
*Node
   1876,       -152.5,  -444.049988,         950.
   1877,           0.,  -444.049988,         950.
   1878,           0.,  -444.049988,        3614.
   1879,       -152.5,  -444.049988,        3614.
   1880,           0.,   444.049988,         950.
   1881,           0.,   444.049988,        3614.
   1882,        152.5,  -444.049988,         200.
   1883,           0.,  -444.049988,         200.
   1884,           0.,  -444.049988,           0.
   1885,        152.5,  -444.049988,           0.
   1886,       -152.5,   444.049988,         950.
   1887,       -152.5,   444.049988,        3614.
   1888,        152.5,   444.049988,         200.
   1889,           0.,   444.049988,         200.
   1890,           0.,   444.049988,           0.
   1891,        152.5,   444.049988,           0.
   1892,           0.,   444.049988,        3962.
   1893,       -152.5,   444.049988,        3962.
   1894,        152.5,   444.049988,         950.
   1895,        152.5,   444.049988,        3614.
** ... 3082 like lines cut
*Element, type=S4R
1777, 1876, 1914, 2571, 2021
1778, 1914, 1915, 2572, 2571
1779, 1915, 1877, 1916, 2572
1780, 2021, 2571, 2573, 2020
1781, 2571, 2572, 2574, 2573
1782, 2572, 1916, 1917, 2574
1783, 2020, 2573, 2575, 2019
1784, 2573, 2574, 2576, 2575
1785, 2574, 1917, 1918, 2576
1786, 2019, 2575, 2577, 2018
1787, 2575, 2576, 2578, 2577
1788, 2576, 1918, 1919, 2578
1789, 2018, 2577, 2579, 2017
1790, 2577, 2578, 2580, 2579
1791, 2578, 1919, 1920, 2580
1792, 2017, 2579, 2581, 2016
1793, 2579, 2580, 2582, 2581
1794, 2580, 1920, 1921, 2582
1795, 2016, 2581, 2583, 2015
1796, 2581, 2582, 2584, 2583
** ... 2948 like lines cut
*Element, type=S3
3697, 4191, 4183, 4173
3698, 4100, 2431, 2432
3699, 4177, 4143, 4129
3700, 4178, 4176, 4137
3828, 4287, 4251, 4254
3829, 4288, 4279, 4271
3830, 4211, 2487, 2488
3831, 4274, 4240, 4226
3832, 4270, 4228, 4222
3833, 4275, 4273, 4234
3959, 4385, 4349, 4356
3960, 4372, 4353, 4362
3961, 4357, 4301, 4300
3962, 4383, 4316, 4374
4091, 4481, 4459, 4413
4092, 4455, 4406, 4407
4093, 4454, 4483, 4445
4094, 4484, 4446, 4463
*Nset, nset=beam-1_Set-1
 1876, 1877, 1878, 1879, 1880, 1881, 1882, 1883, 1884, 1885, 1886, 1887, 1888, 1889, 1890, 1891
 1892, 1893, 1894, 1895, 1896, 1897, 1898, 1899, 1900, 1901, 1902, 1903, 1904, 1905, 1906, 1907
 1908, 1909, 1910, 1911, 1912, 1913, 1914, 1915, 1916, 1917, 1918, 1919, 1920, 1921, 1922, 1923
 1924, 1925, 1926, 1927, 1928, 1929, 1930, 1931, 1932, 1933, 1934, 1935, 1936, 1937, 1938, 1939
 1940, 1941, 1942, 1943, 1944, 1945, 1946, 1947, 1948, 1949, 1950, 1951, 1952, 1953, 1954, 1955
 1956, 1957, 1958, 1959, 1960, 1961, 1962, 1963, 1964, 1965, 1966, 1967, 1968, 1969, 1970, 1971
 1972, 1973, 1974, 1975, 1976, 1977, 1978, 1979, 1980, 1981, 1982, 1983, 1984, 1985, 1986, 1987
 1988, 1989, 1990, 1991, 1992, 1993, 1994, 1995, 1996, 1997, 1998, 1999, 2000, 2001, 2002, 2003
 2004, 2005, 2006, 2007, 2008, 2009, 2010, 2011, 2012, 2013, 2014, 2015, 2016, 2017, 2018, 2019
 2020, 2021, 2039, 2040, 2041, 2042, 2043, 2044, 2045, 2046, 2047, 2048, 2049, 2050, 2051, 2052
 2053, 2054, 2055, 2056, 2057, 2058, 2059, 2060, 2061, 2062, 2063, 2064, 2065, 2066, 2067, 2068
 2069, 2070, 2071, 2072, 2073, 2074, 2075, 2076, 2077, 2078, 2079, 2080, 2081, 2082, 2083, 2084
 2085, 2086, 2087, 2088, 2089, 2090, 2108, 2109, 2110, 2111, 2112, 2113, 2114, 2115, 2116, 2117
 2118, 2119, 2120, 2121, 2122, 2123, 2124, 2125, 2126, 2127, 2128, 2129, 2130, 2131, 2132, 2133
 2134, 2135, 2136, 2137, 2138, 2139, 2140, 2141, 2142, 2143, 2144, 2145, 2146, 2147, 2148, 2149
 2150, 2151, 2152, 2153, 2154, 2155, 2156, 2157, 2158, 2159, 2160, 2161, 2162, 2163, 2164, 2165
 2166, 2167, 2168, 2169, 2170, 2171, 2172, 2173, 2174, 2175, 2176, 2177, 2178, 2179, 2180, 2181
 2182, 2183, 2184, 2185, 2186, 2187, 2188, 2189, 2190, 2191, 2192, 2193, 2194, 2195, 2196, 2197
 2198, 2199, 2200, 2201, 2202, 2203, 2204, 2205, 2206, 2207, 2208, 2209, 2210, 2211, 2212, 2213
 2214, 2215, 2216, 2217, 2218, 2219, 2220, 2221, 2222, 2223, 2224, 2225, 2226, 2227, 2228, 2229
** ... 73 like lines cut
*Elset, elset=beam-1_Set-1
 1777, 1778, 1779, 1780, 1781, 1782, 1783, 1784, 1785, 1786, 1787, 1788, 1789, 1790, 1791, 1792
 1793, 1794, 1795, 1796, 1797, 1798, 1799, 1800, 1801, 1802, 1803, 1804, 1805, 1806, 1807, 1808
 1809, 1810, 1811, 1812, 1813, 1814, 1815, 1816, 1817, 1818, 1819, 1820, 1821, 1822, 1823, 1824
 1825, 1826, 1827, 1828, 1829, 1830, 1831, 1832, 1833, 1834, 1835, 1836, 1837, 1838, 1839, 1840
 1841, 1842, 1843, 1844, 1845, 1846, 1847, 1848, 1849, 1850, 1851, 1852, 1853, 1854, 1855, 1856
 1857, 1858, 1859, 1860, 1861, 1862, 1863, 1864, 1865, 1866, 1867, 1868, 1869, 1870, 1871, 1872
 1873, 1874, 1875, 1876, 1877, 1878, 1879, 1880, 1881, 1882, 1883, 1884, 1885, 1886, 1887, 1888
 1889, 1890, 1891, 1892, 1893, 1894, 1895, 1896, 1897, 1898, 1899, 1900, 1901, 1902, 1903, 1904
 1905, 1906, 1907, 1908, 1909, 1910, 1911, 1912, 1913, 1914, 1915, 1916, 1917, 1918, 1919, 1920
 1921, 1922, 1923, 1924, 1925, 1926, 1927, 1928, 1929, 1930, 1931, 1932, 1933, 1934, 1935, 2890
 2891, 2892, 2893, 2894, 2895, 2896, 2897, 2898, 2899, 2900, 2901, 2902, 2903, 2904, 2905, 2906
 2907, 2908, 2909, 2910, 2911, 2912, 2913, 2914, 2915, 2916, 2917, 2918, 2919, 2920, 2921, 2922
 2923, 2924, 2925, 2926, 2927, 2928, 2929, 2930, 2931, 2932, 2933, 2934, 2935, 2936, 2937, 2938
 2939, 2940, 2941, 2942, 2943, 2944, 2945, 2946, 2947, 2948, 2949, 2950, 2951, 2952, 2953, 2954
 2955, 2956, 2957, 2958, 2959, 2960, 2961, 2962, 2963, 2964, 2965, 2966, 2967, 2968, 2969, 2970
 2971, 2972, 2973, 2974, 2975, 2976, 2977, 2978, 2979, 2980, 2981, 2982, 2983, 2984, 2985, 2986
 2987, 2988, 2989, 2990, 2991, 2992, 2993, 2994, 2995, 2996, 2997, 2998, 2999, 3000, 3001, 3002
 3003, 3004, 3005, 3006, 3007, 3008, 3009, 3010, 3011, 3012, 3013, 3014, 3015, 3016, 3017, 3018
 3019, 3020, 3021, 3022, 3023, 3024, 3025, 3026, 3027, 3028, 3029, 3030, 3031, 3032, 3033, 3034
 3035, 3036, 3037, 3038, 3039, 3040, 3041, 3042, 3043, 3044, 3045, 3046, 3047, 3048, 3049, 3050
** ... 61 like lines cut
*Nset, nset=beam-1_Set-2
 1877, 1878, 1880, 1881, 1883, 1884, 1889, 1890, 1892, 1896, 1916, 1917, 1918, 1919, 1920, 1921
 1922, 1923, 1924, 1925, 1926, 1927, 1928, 1929, 1930, 1931, 1932, 1933, 1934, 1935, 1936, 1937
 1938, 1939, 1940, 1941, 1942, 1943, 1944, 1945, 1946, 1947, 1948, 1949, 1950, 1951, 1952, 1953
 1954, 1955, 1956, 1957, 1958, 1959, 1960, 1961, 1962, 1963, 1964, 1965, 1966, 1967, 2022, 2023
 2024, 2025, 2026, 2027, 2028, 2029, 2030, 2031, 2032, 2033, 2034, 2035, 2036, 2037, 2038, 2039
 2040, 2041, 2042, 2043, 2044, 2045, 2046, 2047, 2048, 2049, 2050, 2051, 2052, 2053, 2054, 2055
 2056, 2057, 2058, 2059, 2060, 2061, 2062, 2063, 2064, 2065, 2066, 2067, 2068, 2069, 2070, 2071
 2072, 2073, 2074, 2075, 2076, 2077, 2078, 2079, 2080, 2081, 2082, 2083, 2084, 2085, 2086, 2087
 2088, 2089, 2090, 2091, 2092, 2093, 2094, 2095, 2096, 2097, 2098, 2099, 2100, 2101, 2102, 2103
 2104, 2105, 2106, 2107, 2110, 2111, 2112, 2176, 2177, 2178, 2184, 2185, 2186, 2187, 2188, 2189
 2254, 2255, 2256, 2257, 2258, 2259, 2260, 2261, 2262, 2263, 2264, 2265, 2266, 2267, 2268, 2269
 2270, 2271, 2272, 2273, 2274, 2275, 2276, 2277, 2278, 2279, 2280, 2281, 2282, 2283, 2284, 2285
 2286, 2287, 2288, 2289, 2290, 2291, 2292, 2293, 2381, 2382, 2383, 2384, 2385, 2386, 2387, 2388
 2389, 2390, 2391, 2392, 2393, 2394, 2395, 2396, 2397, 2405, 2406, 2407, 2408, 2409, 2410, 2411
 2412, 2413, 2414, 2415, 2416, 2417, 2418, 2419, 2420, 2421, 2422, 2423, 2424, 2425, 2426, 2427
 2428, 2429, 2430, 2431, 2432, 2433, 2461, 2462, 2463, 2464, 2465, 2466, 2467, 2468, 2469, 2470
 2471, 2472, 2473, 2474, 2475, 2476, 2477, 2478, 2479, 2480, 2481, 2482, 2483, 2484, 2485, 2486
 2487, 2488, 2489, 2675, 2676, 2677, 2678, 2679, 2680, 2681, 2682, 2683, 2684, 2685, 2686, 2687
 2688, 2689, 2690, 2691, 2692, 2693, 2694, 2695, 2696, 2697, 2698, 2699, 2700, 2701, 2702, 2703
 2704, 2705, 2706, 2707, 2708, 2709, 2710, 2711, 2712, 2713, 2714, 2715, 2716, 2717, 2718, 2719
** ... 93 like lines cut
*Elset, elset=beam-1_Set-2
 1936, 1937, 1938, 1939, 1940, 1941, 1942, 1943, 1944, 1945, 1946, 1947, 1948, 1949, 1950, 1951
 1952, 1953, 1954, 1955, 1956, 1957, 1958, 1959, 1960, 1961, 1962, 1963, 1964, 1965, 1966, 1967
 1968, 1969, 1970, 1971, 1972, 1973, 1974, 1975, 1976, 1977, 1978, 1979, 1980, 1981, 1982, 1983
 1984, 1985, 1986, 1987, 1988, 1989, 1990, 1991, 1992, 1993, 1994, 1995, 1996, 1997, 1998, 1999
 2000, 2001, 2002, 2003, 2004, 2005, 2006, 2007, 2008, 2009, 2010, 2011, 2012, 2013, 2014, 2015
 2016, 2017, 2018, 2019, 2020, 2021, 2022, 2023, 2024, 2025, 2026, 2027, 2028, 2029, 2030, 2031
 2032, 2033, 2034, 2035, 2036, 2037, 2038, 2039, 2040, 2041, 2042, 2043, 2044, 2045, 2046, 2047
 2048, 2049, 2050, 2051, 2052, 2053, 2054, 2055, 2056, 2057, 2058, 2059, 2060, 2061, 2062, 2063
 2064, 2065, 2066, 2067, 2068, 2069, 2070, 2071, 2072, 2073, 2074, 2075, 2076, 2077, 2078, 2079
 2080, 2081, 2082, 2083, 2084, 2085, 2086, 2087, 2088, 2089, 2090, 2091, 2092, 2093, 2094, 2095
 2096, 2097, 2098, 2099, 2100, 2101, 2102, 2103, 2104, 2105, 2106, 2107, 2108, 2109, 2110, 2111
 2112, 2113, 2114, 2115, 2116, 2117, 2118, 2119, 2120, 2121, 2122, 2123, 2124, 2125, 2126, 2127
 2128, 2129, 2130, 2131, 2132, 2133, 2134, 2135, 2136, 2137, 2138, 2139, 2140, 2141, 2142, 2143
 2144, 2145, 2146, 2147, 2148, 2149, 2150, 2151, 2152, 2153, 2154, 2155, 2156, 2157, 2158, 2159
 2160, 2161, 2162, 2163, 2164, 2165, 2166, 2167, 2168, 2169, 2170, 2171, 2172, 2173, 2174, 2175
 2176, 2177, 2178, 2179, 2180, 2181, 2182, 2183, 2184, 2185, 2186, 2187, 2188, 2189, 2190, 2191
 2192, 2193, 2194, 2195, 2196, 2197, 2198, 2199, 2200, 2201, 2202, 2203, 2204, 2205, 2206, 2207
 2208, 2209, 2210, 2211, 2212, 2213, 2214, 2215, 2216, 2217, 2218, 2219, 2220, 2221, 2222, 2223
 2224, 2225, 2226, 2227, 2228, 2229, 2230, 2231, 2232, 2233, 2234, 2235, 2236, 2237, 2238, 2239
 2240, 2241, 2242, 2243, 2244, 2245, 2246, 2247, 2248, 2249, 2250, 2251, 2252, 2253, 2254, 2255
** ... 86 like lines cut
*Nset, nset=beam-1_beam_col_interf
1884,1885,1890,1891,1903,1905,2113,2114,2179,2180,2271,2272,2273,2274,2275,2276
2277,2278,2279,2280,2281,2282,2283,2284,2285,2286,2287,2379,2380,2403,2404
*Elset, elset=beam-1_beam_col_interf
 2899, 2900, 2901, 3070, 3071, 3072, 3307, 3308, 3309, 3310, 3311, 3312, 3313, 3314, 3315, 3316
 3317, 3318, 3319, 3320, 3321, 3322, 3323, 3324, 3556, 3557, 3558, 3694, 3695, 3696
*Nset, nset=beam-1_all_nodes, generate
 1876,  4977,     1
*Elset, elset=beam-1_all_nodes, generate
 1777,  4762,     1
** Section: beam_flange
*Shell Section, elset=beam-1_Set-1, material=steel_sac-avg
23.9, 5
** Section: beam_web
*Shell Section, elset=beam-1_Set-2, material=steel_sac-avg
15.9, 5
** ----------------------------------------------------------------
** 
** PART INSTANCE: beam-2
** 
*System
          0.,       196.3,       1854.,          1.,       196.3,       1854.
          0.,       196.3,       1853.
*Node
   4978,       -152.5,  -444.049988,         950.
   4979,           0.,  -444.049988,         950.
   4980,           0.,  -444.049988,        3614.
   4981,       -152.5,  -444.049988,        3614.
   4982,           0.,   444.049988,         950.
   4983,           0.,   444.049988,        3614.
   4984,        152.5,  -444.049988,         200.
   4985,           0.,  -444.049988,         200.
   4986,           0.,  -444.049988,           0.
   4987,        152.5,  -444.049988,           0.
   4988,       -152.5,   444.049988,         950.
   4989,       -152.5,   444.049988,        3614.
   4990,        152.5,   444.049988,         200.
   4991,           0.,   444.049988,         200.
   4992,           0.,   444.049988,           0.
   4993,        152.5,   444.049988,           0.
   4994,           0.,   444.049988,        3962.
   4995,       -152.5,   444.049988,        3962.
   4996,        152.5,   444.049988,         950.
   4997,        152.5,   444.049988,        3614.
** ... 3082 like lines cut
*Element, type=S4R
4763, 4978, 5016, 5673, 5123
4764, 5016, 5017, 5674, 5673
4765, 5017, 4979, 5018, 5674
4766, 5123, 5673, 5675, 5122
4767, 5673, 5674, 5676, 5675
4768, 5674, 5018, 5019, 5676
4769, 5122, 5675, 5677, 5121
4770, 5675, 5676, 5678, 5677
4771, 5676, 5019, 5020, 5678
4772, 5121, 5677, 5679, 5120
4773, 5677, 5678, 5680, 5679
4774, 5678, 5020, 5021, 5680
4775, 5120, 5679, 5681, 5119
4776, 5679, 5680, 5682, 5681
4777, 5680, 5021, 5022, 5682
4778, 5119, 5681, 5683, 5118
4779, 5681, 5682, 5684, 5683
4780, 5682, 5022, 5023, 5684
4781, 5118, 5683, 5685, 5117
4782, 5683, 5684, 5686, 5685
** ... 2948 like lines cut
*Element, type=S3
6683, 7293, 7285, 7275
6684, 7202, 5533, 5534
6685, 7279, 7245, 7231
6686, 7280, 7278, 7239
6814, 7389, 7353, 7356
6815, 7390, 7381, 7373
6816, 7313, 5589, 5590
6817, 7376, 7342, 7328
6818, 7372, 7330, 7324
6819, 7377, 7375, 7336
6945, 7487, 7451, 7458
6946, 7474, 7455, 7464
6947, 7459, 7403, 7402
6948, 7485, 7418, 7476
7077, 7583, 7561, 7515
7078, 7557, 7508, 7509
7079, 7556, 7585, 7547
7080, 7586, 7548, 7565
*Nset, nset=beam-2_Set-1
 4978, 4979, 4980, 4981, 4982, 4983, 4984, 4985, 4986, 4987, 4988, 4989, 4990, 4991, 4992, 4993
 4994, 4995, 4996, 4997, 4998, 4999, 5000, 5001, 5002, 5003, 5004, 5005, 5006, 5007, 5008, 5009
 5010, 5011, 5012, 5013, 5014, 5015, 5016, 5017, 5018, 5019, 5020, 5021, 5022, 5023, 5024, 5025
 5026, 5027, 5028, 5029, 5030, 5031, 5032, 5033, 5034, 5035, 5036, 5037, 5038, 5039, 5040, 5041
 5042, 5043, 5044, 5045, 5046, 5047, 5048, 5049, 5050, 5051, 5052, 5053, 5054, 5055, 5056, 5057
 5058, 5059, 5060, 5061, 5062, 5063, 5064, 5065, 5066, 5067, 5068, 5069, 5070, 5071, 5072, 5073
 5074, 5075, 5076, 5077, 5078, 5079, 5080, 5081, 5082, 5083, 5084, 5085, 5086, 5087, 5088, 5089
 5090, 5091, 5092, 5093, 5094, 5095, 5096, 5097, 5098, 5099, 5100, 5101, 5102, 5103, 5104, 5105
 5106, 5107, 5108, 5109, 5110, 5111, 5112, 5113, 5114, 5115, 5116, 5117, 5118, 5119, 5120, 5121
 5122, 5123, 5141, 5142, 5143, 5144, 5145, 5146, 5147, 5148, 5149, 5150, 5151, 5152, 5153, 5154
 5155, 5156, 5157, 5158, 5159, 5160, 5161, 5162, 5163, 5164, 5165, 5166, 5167, 5168, 5169, 5170
 5171, 5172, 5173, 5174, 5175, 5176, 5177, 5178, 5179, 5180, 5181, 5182, 5183, 5184, 5185, 5186
 5187, 5188, 5189, 5190, 5191, 5192, 5210, 5211, 5212, 5213, 5214, 5215, 5216, 5217, 5218, 5219
 5220, 5221, 5222, 5223, 5224, 5225, 5226, 5227, 5228, 5229, 5230, 5231, 5232, 5233, 5234, 5235
 5236, 5237, 5238, 5239, 5240, 5241, 5242, 5243, 5244, 5245, 5246, 5247, 5248, 5249, 5250, 5251
 5252, 5253, 5254, 5255, 5256, 5257, 5258, 5259, 5260, 5261, 5262, 5263, 5264, 5265, 5266, 5267
 5268, 5269, 5270, 5271, 5272, 5273, 5274, 5275, 5276, 5277, 5278, 5279, 5280, 5281, 5282, 5283
 5284, 5285, 5286, 5287, 5288, 5289, 5290, 5291, 5292, 5293, 5294, 5295, 5296, 5297, 5298, 5299
 5300, 5301, 5302, 5303, 5304, 5305, 5306, 5307, 5308, 5309, 5310, 5311, 5312, 5313, 5314, 5315
 5316, 5317, 5318, 5319, 5320, 5321, 5322, 5323, 5324, 5325, 5326, 5327, 5328, 5329, 5330, 5331
** ... 73 like lines cut
*Elset, elset=beam-2_Set-1
 4763, 4764, 4765, 4766, 4767, 4768, 4769, 4770, 4771, 4772, 4773, 4774, 4775, 4776, 4777, 4778
 4779, 4780, 4781, 4782, 4783, 4784, 4785, 4786, 4787, 4788, 4789, 4790, 4791, 4792, 4793, 4794
 4795, 4796, 4797, 4798, 4799, 4800, 4801, 4802, 4803, 4804, 4805, 4806, 4807, 4808, 4809, 4810
 4811, 4812, 4813, 4814, 4815, 4816, 4817, 4818, 4819, 4820, 4821, 4822, 4823, 4824, 4825, 4826
 4827, 4828, 4829, 4830, 4831, 4832, 4833, 4834, 4835, 4836, 4837, 4838, 4839, 4840, 4841, 4842
 4843, 4844, 4845, 4846, 4847, 4848, 4849, 4850, 4851, 4852, 4853, 4854, 4855, 4856, 4857, 4858
 4859, 4860, 4861, 4862, 4863, 4864, 4865, 4866, 4867, 4868, 4869, 4870, 4871, 4872, 4873, 4874
 4875, 4876, 4877, 4878, 4879, 4880, 4881, 4882, 4883, 4884, 4885, 4886, 4887, 4888, 4889, 4890
 4891, 4892, 4893, 4894, 4895, 4896, 4897, 4898, 4899, 4900, 4901, 4902, 4903, 4904, 4905, 4906
 4907, 4908, 4909, 4910, 4911, 4912, 4913, 4914, 4915, 4916, 4917, 4918, 4919, 4920, 4921, 5876
 5877, 5878, 5879, 5880, 5881, 5882, 5883, 5884, 5885, 5886, 5887, 5888, 5889, 5890, 5891, 5892
 5893, 5894, 5895, 5896, 5897, 5898, 5899, 5900, 5901, 5902, 5903, 5904, 5905, 5906, 5907, 5908
 5909, 5910, 5911, 5912, 5913, 5914, 5915, 5916, 5917, 5918, 5919, 5920, 5921, 5922, 5923, 5924
 5925, 5926, 5927, 5928, 5929, 5930, 5931, 5932, 5933, 5934, 5935, 5936, 5937, 5938, 5939, 5940
 5941, 5942, 5943, 5944, 5945, 5946, 5947, 5948, 5949, 5950, 5951, 5952, 5953, 5954, 5955, 5956
 5957, 5958, 5959, 5960, 5961, 5962, 5963, 5964, 5965, 5966, 5967, 5968, 5969, 5970, 5971, 5972
 5973, 5974, 5975, 5976, 5977, 5978, 5979, 5980, 5981, 5982, 5983, 5984, 5985, 5986, 5987, 5988
 5989, 5990, 5991, 5992, 5993, 5994, 5995, 5996, 5997, 5998, 5999, 6000, 6001, 6002, 6003, 6004
 6005, 6006, 6007, 6008, 6009, 6010, 6011, 6012, 6013, 6014, 6015, 6016, 6017, 6018, 6019, 6020
 6021, 6022, 6023, 6024, 6025, 6026, 6027, 6028, 6029, 6030, 6031, 6032, 6033, 6034, 6035, 6036
** ... 61 like lines cut
*Nset, nset=beam-2_Set-2
 4979, 4980, 4982, 4983, 4985, 4986, 4991, 4992, 4994, 4998, 5018, 5019, 5020, 5021, 5022, 5023
 5024, 5025, 5026, 5027, 5028, 5029, 5030, 5031, 5032, 5033, 5034, 5035, 5036, 5037, 5038, 5039
 5040, 5041, 5042, 5043, 5044, 5045, 5046, 5047, 5048, 5049, 5050, 5051, 5052, 5053, 5054, 5055
 5056, 5057, 5058, 5059, 5060, 5061, 5062, 5063, 5064, 5065, 5066, 5067, 5068, 5069, 5124, 5125
 5126, 5127, 5128, 5129, 5130, 5131, 5132, 5133, 5134, 5135, 5136, 5137, 5138, 5139, 5140, 5141
 5142, 5143, 5144, 5145, 5146, 5147, 5148, 5149, 5150, 5151, 5152, 5153, 5154, 5155, 5156, 5157
 5158, 5159, 5160, 5161, 5162, 5163, 5164, 5165, 5166, 5167, 5168, 5169, 5170, 5171, 5172, 5173
 5174, 5175, 5176, 5177, 5178, 5179, 5180, 5181, 5182, 5183, 5184, 5185, 5186, 5187, 5188, 5189
 5190, 5191, 5192, 5193, 5194, 5195, 5196, 5197, 5198, 5199, 5200, 5201, 5202, 5203, 5204, 5205
 5206, 5207, 5208, 5209, 5212, 5213, 5214, 5278, 5279, 5280, 5286, 5287, 5288, 5289, 5290, 5291
 5356, 5357, 5358, 5359, 5360, 5361, 5362, 5363, 5364, 5365, 5366, 5367, 5368, 5369, 5370, 5371
 5372, 5373, 5374, 5375, 5376, 5377, 5378, 5379, 5380, 5381, 5382, 5383, 5384, 5385, 5386, 5387
 5388, 5389, 5390, 5391, 5392, 5393, 5394, 5395, 5483, 5484, 5485, 5486, 5487, 5488, 5489, 5490
 5491, 5492, 5493, 5494, 5495, 5496, 5497, 5498, 5499, 5507, 5508, 5509, 5510, 5511, 5512, 5513
 5514, 5515, 5516, 5517, 5518, 5519, 5520, 5521, 5522, 5523, 5524, 5525, 5526, 5527, 5528, 5529
 5530, 5531, 5532, 5533, 5534, 5535, 5563, 5564, 5565, 5566, 5567, 5568, 5569, 5570, 5571, 5572
 5573, 5574, 5575, 5576, 5577, 5578, 5579, 5580, 5581, 5582, 5583, 5584, 5585, 5586, 5587, 5588
 5589, 5590, 5591, 5777, 5778, 5779, 5780, 5781, 5782, 5783, 5784, 5785, 5786, 5787, 5788, 5789
 5790, 5791, 5792, 5793, 5794, 5795, 5796, 5797, 5798, 5799, 5800, 5801, 5802, 5803, 5804, 5805
 5806, 5807, 5808, 5809, 5810, 5811, 5812, 5813, 5814, 5815, 5816, 5817, 5818, 5819, 5820, 5821
** ... 93 like lines cut
*Elset, elset=beam-2_Set-2
 4922, 4923, 4924, 4925, 4926, 4927, 4928, 4929, 4930, 4931, 4932, 4933, 4934, 4935, 4936, 4937
 4938, 4939, 4940, 4941, 4942, 4943, 4944, 4945, 4946, 4947, 4948, 4949, 4950, 4951, 4952, 4953
 4954, 4955, 4956, 4957, 4958, 4959, 4960, 4961, 4962, 4963, 4964, 4965, 4966, 4967, 4968, 4969
 4970, 4971, 4972, 4973, 4974, 4975, 4976, 4977, 4978, 4979, 4980, 4981, 4982, 4983, 4984, 4985
 4986, 4987, 4988, 4989, 4990, 4991, 4992, 4993, 4994, 4995, 4996, 4997, 4998, 4999, 5000, 5001
 5002, 5003, 5004, 5005, 5006, 5007, 5008, 5009, 5010, 5011, 5012, 5013, 5014, 5015, 5016, 5017
 5018, 5019, 5020, 5021, 5022, 5023, 5024, 5025, 5026, 5027, 5028, 5029, 5030, 5031, 5032, 5033
 5034, 5035, 5036, 5037, 5038, 5039, 5040, 5041, 5042, 5043, 5044, 5045, 5046, 5047, 5048, 5049
 5050, 5051, 5052, 5053, 5054, 5055, 5056, 5057, 5058, 5059, 5060, 5061, 5062, 5063, 5064, 5065
 5066, 5067, 5068, 5069, 5070, 5071, 5072, 5073, 5074, 5075, 5076, 5077, 5078, 5079, 5080, 5081
 5082, 5083, 5084, 5085, 5086, 5087, 5088, 5089, 5090, 5091, 5092, 5093, 5094, 5095, 5096, 5097
 5098, 5099, 5100, 5101, 5102, 5103, 5104, 5105, 5106, 5107, 5108, 5109, 5110, 5111, 5112, 5113
 5114, 5115, 5116, 5117, 5118, 5119, 5120, 5121, 5122, 5123, 5124, 5125, 5126, 5127, 5128, 5129
 5130, 5131, 5132, 5133, 5134, 5135, 5136, 5137, 5138, 5139, 5140, 5141, 5142, 5143, 5144, 5145
 5146, 5147, 5148, 5149, 5150, 5151, 5152, 5153, 5154, 5155, 5156, 5157, 5158, 5159, 5160, 5161
 5162, 5163, 5164, 5165, 5166, 5167, 5168, 5169, 5170, 5171, 5172, 5173, 5174, 5175, 5176, 5177
 5178, 5179, 5180, 5181, 5182, 5183, 5184, 5185, 5186, 5187, 5188, 5189, 5190, 5191, 5192, 5193
 5194, 5195, 5196, 5197, 5198, 5199, 5200, 5201, 5202, 5203, 5204, 5205, 5206, 5207, 5208, 5209
 5210, 5211, 5212, 5213, 5214, 5215, 5216, 5217, 5218, 5219, 5220, 5221, 5222, 5223, 5224, 5225
 5226, 5227, 5228, 5229, 5230, 5231, 5232, 5233, 5234, 5235, 5236, 5237, 5238, 5239, 5240, 5241
** ... 86 like lines cut
*Nset, nset=beam-2_beam_col_interf
4986,4987,4992,4993,5005,5007,5215,5216,5281,5282,5373,5374,5375,5376,5377,5378
5379,5380,5381,5382,5383,5384,5385,5386,5387,5388,5389,5481,5482,5505,5506
*Elset, elset=beam-2_beam_col_interf
 5885, 5886, 5887, 6056, 6057, 6058, 6293, 6294, 6295, 6296, 6297, 6298, 6299, 6300, 6301, 6302
 6303, 6304, 6305, 6306, 6307, 6308, 6309, 6310, 6542, 6543, 6544, 6680, 6681, 6682
*Nset, nset=beam-2_all_nodes, generate
 4978,  8079,     1
*Elset, elset=beam-2_all_nodes, generate
 4763,  7748,     1
** Section: beam_flange
*Shell Section, elset=beam-2_Set-1, material=steel_sac-avg
23.9, 5
** Section: beam_web
*Shell Section, elset=beam-2_Set-2, material=steel_sac-avg
15.9, 5
*System
*Node
   8080,           0.,           0.,        3708.
*Node
   8081,           0.,           0.,           0.
*Node
   8082,           0.,           0.,        3709.
*Element, type=CONN3D2
7749, 8082, 8080
*Connector Section, elset=Wire-1-Set-1, behavior=ConnSect-1
Hinge,
"Datum csys-2",
*Nset, nset=Wire-1-Set-1
8080,8082
*Elset, elset=Wire-1-Set-1
 7749,
*Nset, nset=beam_corner_nodes
1893,1897,1900,1901
*Nset, nset=beam_corner_nodes
4995,4999,5002,5003
*Nset, nset=col_bot_rp
8081,
*Nset, nset=col_top_rp
8080,
*Nset, nset=roller_nodes
1878,1879,1899,1968,1969,2356,2357
*Nset, nset=roller_nodes
4983,4989,4997,5222,5223,5354,5355
*Elset, elset=roller_nodes
 1933, 1934, 1935, 3325, 3326, 3327, 3502, 3503, 3504, 3526, 3527, 3528
*Elset, elset=roller_nodes
 6044, 6045, 6046, 6059, 6060, 6061, 6236, 6237, 6238, 6491, 6492, 6493
*Nset, nset=s_Set-5
1884,1885,1890,1891,1903,1905,2113,2114,2179,2180,2271,2272,2273,2274,2275,2276
2277,2278,2279,2280,2281,2282,2283,2284,2285,2286,2287,2379,2380,2403,2404
*Elset, elset=s_Set-5
 2899, 2900, 2901, 3070, 3071, 3072, 3307, 3308, 3309, 3310, 3311, 3312, 3313, 3314, 3315, 3316
 3317, 3318, 3319, 3320, 3321, 3322, 3323, 3324, 3556, 3557, 3558, 3694, 3695, 3696
*Nset, nset=t_Set-3
   1,   4,   5,   7,   9,  12, 162, 163, 164, 165, 166, 167, 244, 245, 246, 247
 248, 249, 250, 331, 332, 333, 486, 487, 488
*Elset, elset=t_Set-3
    1,   75,  149,  223,  370,  444,  518,  592,  593,  594,  595,  596,  597,  598,  599,  600
 1258, 1332, 1406, 1480, 1481, 1555, 1629, 1703
*Nset, nset=t_Set-4
   2,   3,   6,   8,  10,  11,  86,  87,  88, 241, 242, 243, 251, 252, 253, 254
 255, 256, 257, 407, 408, 409, 410, 411, 412
*Elset, elset=t_Set-4
   74,  148,  222,  296,  297,  371,  445,  519, 1177, 1178, 1179, 1180, 1181, 1182, 1183, 1184
 1185, 1259, 1333, 1407, 1554, 1628, 1702, 1776
*Nset, nset=top_spring_node
8082,
*Elset, elset=_m_Surf-1_SPOS, generate
   1,  592,    1
*Surface, type=ELEMENT, name=m_Surf-1
_m_Surf-1_SPOS, SPOS
*Elset, elset=_m_Surf-2_SNEG, generate
 1185,  1776,     1
*Surface, type=ELEMENT, name=m_Surf-2
_m_Surf-2_SNEG, SNEG
*Surface, type=NODE, name=beam-1_beam_col_interf_CNS_
beam-1_beam_col_interf, 1.
*Surface, type=NODE, name=beam-2_beam_col_interf_CNS_
beam-2_beam_col_interf, 1.
*Orientation, name="Datum csys-2"
          0.,           0.,          -1.,           0.,           1.,           0.
1, 0.
** Constraint: Constraint-3
*Tie, name=Constraint-3, adjust=yes
beam-1_beam_col_interf_CNS_, m_Surf-1
** Constraint: Constraint-3-Copy
*Tie, name=Constraint-3-Copy, adjust=yes
beam-2_beam_col_interf_CNS_, m_Surf-2
** Constraint: col_bot_rigid
*Rigid Body, ref node=col_bot_rp, tie nset=t_Set-4
** Constraint: col_top_rigid
*Rigid Body, ref node=col_top_rp, tie nset=t_Set-3
*Connector Behavior, name=ConnSect-1
*Connector Elasticity, component=4
 1e+10,
*Amplitude, name=lateral_amp, definition=EQUALLY SPACED, fixed interval=1.
             0.,     0.002784348,       5.1271551,     0.150808944,      7.68108827,     12.75919762,     0.442028961,    -6.931781793
   -12.94652249,    -0.410360876,     8.742618913,     12.89386931,     0.094385003,     -6.76835197,    -12.69018989,    -1.092262865
   -1.092413614,     5.281159999,     12.75746801,      0.09116187,    -7.121188958,    -12.33929041,    -0.763583182,     8.224215073
    12.71614234,     0.337136359,     -7.12456919,    -12.69275008,    -1.162503771,     7.019675699,     12.58506183,     0.324143624
   -7.782298888,    -12.34323351,    -1.061486574,      7.28393641,     12.76386538,     0.324291706,     -6.06142425,    -12.39677048
   -0.783291042,    -0.779795494,     7.168502935,      17.3195568,     0.524111982,    -7.568481815,    -17.18614711,    -1.057740201
    8.999902244,     17.21452171,     0.482017578,    -8.100013772,    -17.19314799,    -1.107414219,     9.109984574,     17.18570756
    0.339980905,    -7.514522182,    -16.71729194,    -1.019413125,     8.398640302,     17.09194753,     0.206426181,    -7.307193539
   -16.68170387,    -0.834678798,      7.86626316,     17.44676051,     0.081023587,    -7.979332022,     -16.6718041,    -1.269764161
    8.439383553,     17.21481596,     0.102936421,    -7.398555561,     -16.6744984,    -0.977257126,    -0.977200611,     19.19331379
    25.88343236,     0.310119776,    -13.94225939,    -25.88564076,     -0.42879772,     13.35930818,     26.30146442,     0.358496235
   -13.04560027,     -25.7129741,    -0.782263485,     13.05921417,     26.11881619,     0.435996715,    -13.39995123,    -25.27800215
   -0.690296308,     13.19368342,     26.56044713,     0.405544274,    -12.69198871,    -25.42259228,    -0.992418767,     13.18792244
    26.34826633,    -0.054919118,    -12.96877924,    -25.10218475,    -1.039916767,     12.83031026,     26.17242314,     0.493659033
   -12.77248169,    -25.24140723,    -0.856400497,    -0.856668213,     17.02872172,     32.37350002,     35.55344464,     4.111648622
   -16.86447313,    -27.46744456,    -34.34711787,    -6.608725162,     12.90924596,     31.87173014,     35.62504267,     24.03362973
    6.368958941,    -16.77976032,    -27.06165162,    -34.61752487,    -24.87088142,    -11.41609972,    -6.258612324,     15.36484265
    29.38271365,     35.79868583,     22.57613506,     11.30652539,     5.830961922,    -10.80344601,    -22.62172717,    -34.65968862
   -24.39535532,    -14.86308623,    -6.632564078,     8.562793644,     22.38314002,     35.61271834,     26.06198013,     15.10656948
     6.17522133,    -10.66462574,      -20.777287,    -34.67158788,    -26.79463323,    -16.84422869,    -6.336707418,    -6.336105184
** ... 38 like lines cut
** 
** MATERIALS
** 
*Material, name=steel_flange
*Elastic
200000., 0.3
*Plastic, hardening=COMBINED, datatype=PARAMETERS, number backstresses=2
 318.47,  11608.,  145.22, 1026.33,    4.68
*Cyclic Hardening, parameters
 318.47, 100.72,     8.
*Material, name=steel_sac-avg
*Elastic
207300., 0.3
*Plastic, hardening=COMBINED, datatype=PARAMETERS, number backstresses=1
352., 2305.55,  20.153
*Cyclic Hardening, parameters
352., 61.6014, 8.95688
*Material, name=steel_sac-avg-lowfy
*Elastic
207300., 0.3
*Plastic, hardening=COMBINED, datatype=PARAMETERS, number backstresses=1
320., 2305.55,  20.153
*Cyclic Hardening, parameters
320., 61.6014, 8.95688
*Material, name=steel_web
*Elastic
200000., 0.3
*Plastic, hardening=COMBINED, datatype=PARAMETERS, number backstresses=2
 339.18, 8716.08,  118.47, 1182.05,    5.22
*Cyclic Hardening, parameters
 339.18, 77.52,  9.29
** 
** BOUNDARY CONDITIONS
** 
** Name: beam_lateral_hold Type: Displacement/Rotation
*Boundary
beam_corner_nodes, 1, 1
** Name: bot_fix Type: Displacement/Rotation
*Boundary
col_bot_rp, 1, 1
col_bot_rp, 2, 2
col_bot_rp, 3, 3
** Name: roller_supports Type: Displacement/Rotation
*Boundary
roller_nodes, 3, 3
** Name: top_fix Type: Displacement/Rotation
*Boundary
top_spring_node, 1, 1
top_spring_node, 6, 6
*Imperfection, file=DBBW-FlexTop-Buckle, step=1
3, 3.2
4, -3.2
** ----------------------------------------------------------------
** 
** STEP: cyclic_loading
** 
*Step, name=cyclic_loading, nlgeom=YES, inc=1000000000
*Static
1., 463., 1e-10, 1.
** 
** BOUNDARY CONDITIONS
** 
** Name: top_disp_control Type: Displacement/Rotation
*Boundary, amplitude=lateral_amp
top_spring_node, 2, 2, 1.
** 
** OUTPUT REQUESTS
** 
*Restart, write, frequency=0
** 
** FIELD OUTPUT: F-Output-1
** 
*Output, field, variable=PRESELECT, time interval=1.
** 
** HISTORY OUTPUT: H-Output-1
** 
*Output, history, variable=PRESELECT
*End Step
