*Heading
** Job name: DBBW-Macro-KC-Plus100 Model name: DBBW-Macro-KC-Plus100
** Generated by: Abaqus/CAE 6.14-1
*Preprint, echo=NO, model=NO, history=NO, contact=NO
** ----------------------------------------------------------------
** 
** PART INSTANCE: column-1
** 
*System
          0.,          0.,       1304.,          1.,          0.,       1304.
*Node
      1,           0.,  -196.300003,        1100.
      2,           0.,  -196.300003,           0.
      3,         211.,  -196.300003,           0.
      4,         211.,  -196.300003,        1100.
      5,        -211.,  -196.300003,        1100.
      6,        -211.,  -196.300003,           0.
      7,           0.,   196.300003,        1100.
      8,           0.,   196.300003,           0.
      9,        -211.,   196.300003,        1100.
     10,        -211.,   196.300003,           0.
     11,         211.,   196.300003,           0.
     12,         211.,   196.300003,        1100.
     13,           0.,  -196.300003,        1050.
     14,           0.,  -196.300003,        1000.
     15,           0.,  -196.300003,         950.
     16,           0.,  -196.300003,         900.
     17,           0.,  -196.300003,         850.
     18,           0.,  -196.300003,         800.
     19,           0.,  -196.300003,         750.
     20,           0.,  -196.300003,         700.
** ... 555 like lines cut
*Element, type=S4R
 1,   1,  13, 177,  60
 2,  13,  14, 178, 177
 3,  14,  15, 179, 178
 4,  15,  16, 180, 179
 5,  16,  17, 181, 180
 6,  17,  18, 182, 181
 7,  18,  19, 183, 182
 8,  19,  20, 184, 183
 9,  20,  21, 185, 184
10,  21,  22, 186, 185
11,  22,  23, 187, 186
12,  23,  24, 188, 187
13,  24,  25, 189, 188
14,  25,  26, 190, 189
15,  26,  27, 191, 190
16,  27,  28, 192, 191
17,  28,  29, 193, 192
18,  29,  30, 194, 193
19,  30,  31, 195, 194
20,  31,  32, 196, 195
** ... 508 like lines cut
*Nset, nset=column-1_Set-1
   1,   2,   3,   4,   5,   6,   7,   8,   9,  10,  11,  12,  13,  14,  15,  16
  17,  18,  19,  20,  21,  22,  23,  24,  25,  26,  27,  28,  29,  30,  31,  32
  33,  34,  35,  36,  37,  38,  39,  40,  41,  42,  43,  44,  45,  46,  47,  48
  49,  50,  51,  52,  53,  54,  55,  56,  57,  58,  59,  60,  61,  62,  63,  64
  65,  66,  67,  68,  69,  70,  71,  72,  73,  74,  75,  76,  77,  78,  79,  80
  81,  82,  83,  84,  85,  86,  87, 102, 103, 104, 105, 106, 107, 108, 109, 110
 111, 112, 113, 114, 115, 116, 117, 118, 119, 120, 121, 122, 123, 124, 125, 126
 127, 128, 129, 130, 131, 132, 133, 134, 135, 136, 137, 138, 139, 140, 141, 142
 143, 144, 145, 146, 147, 148, 149, 150, 151, 152, 153, 154, 155, 156, 157, 158
 159, 160, 161, 162, 163, 164, 165, 166, 167, 168, 169, 170, 171, 172, 173, 174
 175, 176, 177, 178, 179, 180, 181, 182, 183, 184, 185, 186, 187, 188, 189, 190
 191, 192, 193, 194, 195, 196, 197, 198, 199, 200, 201, 202, 203, 204, 205, 206
 207, 208, 209, 210, 211, 212, 213, 214, 215, 216, 217, 218, 219, 220, 221, 222
 223, 224, 225, 226, 227, 228, 229, 230, 231, 232, 233, 234, 235, 236, 237, 238
 239, 240, 241, 242, 243, 244, 245, 246, 247, 248, 249, 250, 251, 252, 253, 254
 255, 256, 257, 258, 259, 260, 261, 262, 263, 264, 265, 266, 267, 268, 269, 270
 271, 272, 273, 274, 275, 276, 277, 278, 279, 280, 281, 282, 283, 284, 285, 286
 287, 288, 289, 290, 291, 292, 293, 294, 295, 296, 297, 298, 299, 300, 301, 302
 450, 451, 452, 453, 454, 455, 456, 457, 458, 459, 460, 461, 462, 463, 464, 465
 466, 467, 468, 469, 470, 471, 472, 473, 474, 475, 476, 477, 478, 479, 480, 481
** ... 6 like lines cut
*Elset, elset=column-1_Set-1
   1,   2,   3,   4,   5,   6,   7,   8,   9,  10,  11,  12,  13,  14,  15,  16
  17,  18,  19,  20,  21,  22,  23,  24,  25,  26,  27,  28,  29,  30,  31,  32
  33,  34,  35,  36,  37,  38,  39,  40,  41,  42,  43,  44,  45,  46,  47,  48
  49,  50,  51,  52,  53,  54,  55,  56,  57,  58,  59,  60,  61,  62,  63,  64
  65,  66,  67,  68,  69,  70,  71,  72,  73,  74,  75,  76,  77,  78,  79,  80
  81,  82,  83,  84,  85,  86,  87,  88,  89,  90,  91,  92,  93,  94,  95,  96
  97,  98,  99, 100, 101, 102, 103, 104, 105, 106, 107, 108, 109, 110, 111, 112
 113, 114, 115, 116, 117, 118, 119, 120, 121, 122, 123, 124, 125, 126, 127, 128
 129, 130, 131, 132, 133, 134, 135, 136, 137, 138, 139, 140, 141, 142, 143, 144
 145, 146, 147, 148, 149, 150, 151, 152, 153, 154, 155, 156, 157, 158, 159, 160
 161, 162, 163, 164, 165, 166, 167, 168, 169, 170, 171, 172, 173, 174, 175, 176
 353, 354, 355, 356, 357, 358, 359, 360, 361, 362, 363, 364, 365, 366, 367, 368
 369, 370, 371, 372, 373, 374, 375, 376, 377, 378, 379, 380, 381, 382, 383, 384
 385, 386, 387, 388, 389, 390, 391, 392, 393, 394, 395, 396, 397, 398, 399, 400
 401, 402, 403, 404, 405, 406, 407, 408, 409, 410, 411, 412, 413, 414, 415, 416
 417, 418, 419, 420, 421, 422, 423, 424, 425, 426, 427, 428, 429, 430, 431, 432
 433, 434, 435, 436, 437, 438, 439, 440, 441, 442, 443, 444, 445, 446, 447, 448
 449, 450, 451, 452, 453, 454, 455, 456, 457, 458, 459, 460, 461, 462, 463, 464
 465, 466, 467, 468, 469, 470, 471, 472, 473, 474, 475, 476, 477, 478, 479, 480
 481, 482, 483, 484, 485, 486, 487, 488, 489, 490, 491, 492, 493, 494, 495, 496
 497, 498, 499, 500, 501, 502, 503, 504, 505, 506, 507, 508, 509, 510, 511, 512
 513, 514, 515, 516, 517, 518, 519, 520, 521, 522, 523, 524, 525, 526, 527, 528
*Nset, nset=column-1_Set-2
   1,   2,   7,   8,  13,  14,  15,  16,  17,  18,  19,  20,  21,  22,  23,  24
  25,  26,  27,  28,  29,  30,  31,  32,  33,  88,  89,  90,  91,  92,  93,  94
  95,  96,  97,  98,  99, 100, 101, 102, 103, 104, 105, 106, 107, 108, 109, 110
 111, 112, 113, 114, 115, 116, 117, 118, 119, 120, 121, 122, 303, 304, 305, 306
 307, 308, 309, 310, 311, 312, 313, 314, 315, 316, 317, 318, 319, 320, 321, 322
 323, 324, 325, 326, 327, 328, 329, 330, 331, 332, 333, 334, 335, 336, 337, 338
 339, 340, 341, 342, 343, 344, 345, 346, 347, 348, 349, 350, 351, 352, 353, 354
 355, 356, 357, 358, 359, 360, 361, 362, 363, 364, 365, 366, 367, 368, 369, 370
 371, 372, 373, 374, 375, 376, 377, 378, 379, 380, 381, 382, 383, 384, 385, 386
 387, 388, 389, 390, 391, 392, 393, 394, 395, 396, 397, 398, 399, 400, 401, 402
 403, 404, 405, 406, 407, 408, 409, 410, 411, 412, 413, 414, 415, 416, 417, 418
 419, 420, 421, 422, 423, 424, 425, 426, 427, 428, 429, 430, 431, 432, 433, 434
 435, 436, 437, 438, 439, 440, 441, 442, 443, 444, 445, 446, 447, 448, 449
*Elset, elset=column-1_Set-2, generate
 177,  352,    1
*Nset, nset=column-1_top_interf
   1,   4,   5,   7,   9,  12,  58,  59,  60,  61,  62,  63,  88,  89,  90,  91
  92,  93,  94, 123, 124, 125, 174, 175, 176
*Elset, elset=column-1_top_interf
   1,  23,  45,  67, 110, 132, 154, 176, 177, 178, 179, 180, 181, 182, 183, 184
 374, 396, 418, 440, 441, 463, 485, 507
*Nset, nset=column-1_bot_interf
   2,   3,   6,   8,  10,  11,  34,  35,  36,  85,  86,  87,  95,  96,  97,  98
  99, 100, 101, 147, 148, 149, 150, 151, 152
*Elset, elset=column-1_bot_interf
  22,  44,  66,  88,  89, 111, 133, 155, 345, 346, 347, 348, 349, 350, 351, 352
 353, 375, 397, 419, 462, 484, 506, 528
*Nset, nset=column-1_all_nodes, generate
   1,  575,    1
*Elset, elset=column-1_all_nodes, generate
   1,  528,    1
** Section: col_flange
*Shell Section, elset=column-1_Set-1, material=steel_sac-avg
72.4, 5
** Section: col_web
*Shell Section, elset=column-1_Set-2, material=steel_sac-avg
45., 5
** ----------------------------------------------------------------
** 
** PART INSTANCE: beam-1
** 
*System
          0.,      -196.3,       1854.,          1.,      -196.3,       1854.
          0.,      -196.3,       1855.
*Node
    576,        152.5,  -444.049988,         200.
    577,           0.,  -444.049988,         200.
    578,           0.,  -444.049988,           0.
    579,        152.5,  -444.049988,           0.
    580,        152.5,   444.049988,         200.
    581,           0.,   444.049988,         200.
    582,           0.,   444.049988,           0.
    583,        152.5,   444.049988,           0.
    584,       -152.5,  -444.049988,         200.
    585,       -152.5,  -444.049988,           0.
    586,       -152.5,   444.049988,         200.
    587,       -152.5,   444.049988,           0.
    588,           0.,  -444.049988,        1050.
    589,       -152.5,  -444.049988,   914.400024
    590,       -152.5,  -444.049988,        1050.
    591,       -152.5,  -444.049988,   228.397263
    592,           0.,   444.049988,        1050.
    593,       -152.5,   444.049988,   914.400024
    594,       -152.5,   444.049988,        1050.
    595,       -152.5,   444.049988,   228.397263
** ... 1220 like lines cut
*Element, type=S4R
529, 576, 602, 891, 611
530, 602, 603, 892, 891
531, 603, 577, 604, 892
532, 611, 891, 893, 610
533, 891, 892, 894, 893
534, 892, 604, 605, 894
535, 610, 893, 895, 609
536, 893, 894, 896, 895
537, 894, 605, 606, 896
538, 609, 895, 608, 579
539, 895, 896, 607, 608
540, 896, 606, 578, 607
541, 580, 612, 897, 621
542, 612, 613, 898, 897
543, 613, 581, 614, 898
544, 621, 897, 899, 620
545, 897, 898, 900, 899
546, 898, 614, 615, 900
547, 620, 899, 901, 619
548, 899, 900, 902, 901
** ... 1150 like lines cut
*Nset, nset=beam-1_Set-1
  576,  577,  578,  579,  580,  581,  582,  583,  584,  585,  586,  587,  588,  589,  590,  591
  592,  593,  594,  595,  596,  597,  598,  599,  600,  601,  602,  603,  604,  605,  606,  607
  608,  609,  610,  611,  612,  613,  614,  615,  616,  617,  618,  619,  620,  621,  622,  623
  624,  625,  626,  627,  628,  663,  664,  665,  666,  667,  668,  669,  670,  671,  672,  673
  674,  675,  676,  677,  678,  679,  680,  681,  682,  683,  684,  685,  686,  687,  688,  689
  690,  691,  692,  693,  694,  695,  696,  697,  698,  699,  700,  701,  702,  703,  704,  705
  706,  707,  708,  709,  710,  711,  712,  713,  714,  715,  716,  717,  718,  719,  720,  721
  722,  723,  724,  725,  726,  727,  728,  729,  730,  731,  732,  733,  734,  735,  736,  737
  738,  739,  740,  741,  742,  743,  744,  745,  746,  747,  748,  749,  750,  751,  752,  753
  754,  755,  756,  757,  758,  759,  760,  761,  762,  763,  764,  765,  766,  767,  768,  769
  770,  771,  772,  773,  774,  775,  776,  777,  778,  779,  780,  781,  782,  783,  784,  785
  786,  787,  788,  789,  790,  791,  792,  793,  794,  795,  796,  797,  798,  799,  800,  801
  802,  803,  804,  805,  823,  824,  825,  826,  827,  828,  829,  830,  831,  832,  833,  834
  835,  836,  837,  838,  839,  840,  841,  842,  843,  844,  845,  846,  847,  848,  849,  850
  851,  852,  853,  854,  855,  856,  857,  858,  859,  860,  861,  862,  863,  864,  865,  866
  867,  868,  869,  870,  871,  872,  873,  874,  875,  876,  877,  878,  879,  880,  881,  882
  883,  884,  885,  886,  887,  888,  889,  890,  891,  892,  893,  894,  895,  896,  897,  898
  899,  900,  901,  902,  903,  904,  905,  906,  907,  908,  960,  961,  962,  963,  964,  965
  966,  967,  968,  969,  970,  971,  972,  973,  974,  975,  976,  977,  978,  979,  980,  981
  982,  983,  984,  985,  986,  987,  988,  989,  990,  991,  992,  993,  994,  995,  996,  997
** ... 15 like lines cut
*Elset, elset=beam-1_Set-1
  529,  530,  531,  532,  533,  534,  535,  536,  537,  538,  539,  540,  541,  542,  543,  544
  545,  546,  547,  548,  549,  550,  551,  552,  553,  554,  555,  556,  557,  558,  559,  560
  561,  562,  563,  564,  637,  638,  639,  640,  641,  642,  643,  644,  645,  646,  647,  648
  649,  650,  651,  652,  653,  654,  655,  656,  657,  658,  659,  660,  661,  662,  663,  664
  665,  666,  667,  668,  669,  670,  671,  672,  673,  674,  675,  676,  677,  678,  679,  680
  681,  682,  683,  684,  685,  686,  687,  688,  689,  690,  691,  692,  693,  694,  695,  696
  697,  698,  699,  700,  701,  702,  703,  704,  705,  706,  707,  708,  709,  710,  711,  712
  713,  714,  715,  716,  717,  718,  719,  720,  721,  722,  723,  724,  725,  726,  727,  728
  729,  730,  731,  732,  733,  734,  735,  736,  737,  738,  739,  740,  741,  742,  743,  744
  745,  746,  747,  748,  749,  750,  751,  752,  753,  754,  755,  756,  757,  758,  759,  760
  761,  762,  763,  764,  765,  766,  767,  768,  769,  770,  771,  772,  773,  774,  775,  776
  777,  778,  779,  780,  781,  782,  783,  784,  785,  786,  787,  788,  789,  790,  791,  792
  793,  794,  795,  796,  797,  798,  799,  800,  801,  802,  803,  804,  805,  806,  807,  808
  809,  810,  811,  812,  813,  814,  815,  816,  817,  818,  819,  820,  821,  822,  823,  824
  825,  826,  827,  828,  829,  830,  831,  832,  833,  834,  835,  836,  837,  838,  839,  840
  841,  842,  843,  844,  845,  846,  847,  848,  849,  850,  851,  852,  853,  854,  855,  856
  857,  858, 1489, 1490, 1491, 1492, 1493, 1494, 1495, 1496, 1497, 1498, 1499, 1500, 1501, 1502
 1503, 1504, 1505, 1506, 1507, 1508, 1509, 1510, 1511, 1512, 1513, 1514, 1515, 1516, 1517, 1518
 1519, 1520, 1521, 1522, 1523, 1524, 1525, 1526, 1527, 1528, 1529, 1530, 1531, 1532, 1533, 1534
 1535, 1536, 1537, 1538, 1539, 1540, 1541, 1542, 1543, 1544, 1545, 1546, 1547, 1548, 1549, 1550
** ... 10 like lines cut
*Nset, nset=beam-1_Set-2
  577,  578,  581,  582,  588,  592,  604,  605,  606,  614,  615,  616,  629,  630,  631,  632
  633,  634,  635,  636,  637,  638,  639,  640,  641,  642,  643,  644,  645,  646,  647,  648
  649,  650,  651,  652,  653,  654,  655,  656,  657,  658,  659,  660,  661,  662,  670,  671
  672,  673,  674,  675,  676,  677,  678,  679,  680,  681,  682,  683,  684,  685,  686,  687
  688,  689,  690,  691,  692,  693,  694,  695,  696,  697,  698,  699,  700,  701,  702,  703
  738,  739,  740,  741,  742,  743,  744,  745,  746,  747,  748,  749,  750,  751,  752,  753
  754,  755,  756,  757,  758,  759,  760,  761,  762,  763,  764,  765,  766,  767,  768,  769
  770,  771,  806,  807,  808,  809,  810,  811,  812,  813,  814,  815,  816,  817,  818,  819
  820,  821,  822,  909,  910,  911,  912,  913,  914,  915,  916,  917,  918,  919,  920,  921
  922,  923,  924,  925,  926,  927,  928,  929,  930,  931,  932,  933,  934,  935,  936,  937
  938,  939,  940,  941,  942,  943,  944,  945,  946,  947,  948,  949,  950,  951,  952,  953
  954,  955,  956,  957,  958,  959, 1102, 1103, 1104, 1105, 1106, 1107, 1108, 1109, 1110, 1111
 1112, 1113, 1114, 1115, 1116, 1117, 1118, 1119, 1120, 1121, 1122, 1123, 1124, 1125, 1126, 1127
 1128, 1129, 1130, 1131, 1132, 1133, 1134, 1135, 1136, 1137, 1138, 1139, 1140, 1141, 1142, 1143
 1144, 1145, 1146, 1147, 1148, 1149, 1150, 1151, 1152, 1153, 1154, 1155, 1156, 1157, 1158, 1159
 1160, 1161, 1162, 1163, 1164, 1165, 1166, 1167, 1168, 1169, 1170, 1171, 1172, 1173, 1174, 1175
 1176, 1177, 1178, 1179, 1180, 1181, 1182, 1183, 1184, 1185, 1186, 1187, 1188, 1189, 1190, 1191
 1192, 1193, 1194, 1195, 1196, 1197, 1198, 1199, 1200, 1201, 1202, 1203, 1204, 1205, 1206, 1207
 1208, 1209, 1210, 1211, 1212, 1213, 1214, 1215, 1216, 1217, 1218, 1219, 1220, 1221, 1222, 1223
 1224, 1225, 1226, 1227, 1228, 1229, 1230, 1231, 1232, 1233, 1234, 1235, 1236, 1237, 1238, 1239
** ... 28 like lines cut
*Elset, elset=beam-1_Set-2
 565, 566, 567, 568, 569, 570, 571, 572, 573, 574, 575, 576, 577, 578, 579, 580
 581, 582, 583, 584, 585, 586, 587, 588, 589, 590, 591, 592, 593, 594, 595, 596
 597, 598, 599, 600, 601, 602, 603, 604, 605, 606, 607, 608, 609, 610, 611, 612
 613, 614, 615, 616, 617, 618, 619, 620, 621, 622, 623, 624, 625, 626, 627, 628
 629, 630, 631, 632, 633, 634, 635, 636, 859, 860, 861, 862, 863, 864, 865, 866
 867, 868, 869, 870, 871, 872, 873, 874, 875, 876, 877, 878, 879, 880, 881, 882
 883, 884, 885, 886, 887, 888, 889, 890, 891, 892, 893, 894, 895, 896, 897, 898
 899, 900, 901, 902, 903, 904, 905, 906, 907, 908, 909, 910, 911, 912, 913, 914
 915, 916, 917, 918, 919, 920, 921, 922, 923, 924, 925, 926, 927, 928, 929, 930
 931, 932, 933, 934, 935, 936, 937, 938, 939, 940, 941, 942, 943, 944, 945, 946
 947, 948, 949, 950, 951, 952, 953, 954, 955, 956, 957, 958, 959, 960, 961, 962
 963, 964, 965, 966, 967, 968, 969, 970, 971, 972, 973, 974, 975, 976, 977, 978
 979, 980, 981, 982, 983, 984, 985, 986, 987, 988, 989, 990, 991, 992, 993, 994
 995, 996, 997, 998, 999,1000,1001,1002,1003,1004,1005,1006,1007,1008,1009,1010
1011,1012,1013,1014,1015,1016,1017,1018,1019,1020,1021,1022,1023,1024,1025,1026
1027,1028,1029,1030,1031,1032,1033,1034,1035,1036,1037,1038,1039,1040,1041,1042
1043,1044,1045,1046,1047,1048,1049,1050,1051,1052,1053,1054,1055,1056,1057,1058
1059,1060,1061,1062,1063,1064,1065,1066,1067,1068,1069,1070,1071,1072,1073,1074
1075,1076,1077,1078,1079,1080,1081,1082,1083,1084,1085,1086,1087,1088,1089,1090
1091,1092,1093,1094,1095,1096,1097,1098,1099,1100,1101,1102,1103,1104,1105,1106
** ... 24 like lines cut
*Nset, nset=beam-1_beam_col_interf
578,579,582,583,585,587,607,608,617,618,627,628,646,647,648,649
650,651,652,653,654,655,656,657,658,659,660,661,662,668,669
*Elset, elset=beam-1_beam_col_interf
 538, 539, 540, 550, 551, 552, 562, 563, 564, 619, 620, 621, 622, 623, 624, 625
 626, 627, 628, 629, 630, 631, 632, 633, 634, 635, 636, 646, 647, 648
*Nset, nset=beam-1_beam_couple_interf
 588, 590, 592, 594, 597, 600, 704, 705, 772, 773, 806, 807, 808, 809, 810, 811
 812, 813, 814, 815, 816, 817, 818, 819, 820, 821, 822, 855, 856, 889, 890
*Elset, elset=beam-1_beam_couple_interf
  706,  707,  708,  811,  812,  813, 1471, 1472, 1473, 1474, 1475, 1476, 1477, 1478, 1479, 1480
 1481, 1482, 1483, 1484, 1485, 1486, 1487, 1488, 1546, 1547, 1548, 1651, 1652, 1653
*Nset, nset=beam-1_all_nodes, generate
  576,  1815,     1
*Elset, elset=beam-1_all_nodes, generate
  529,  1698,     1
** Section: beam_flange
*Shell Section, elset=beam-1_Set-1, material=steel_sac-avg
23.9, 5
** Section: beam_web
*Shell Section, elset=beam-1_Set-2, material=steel_sac-avg
15.9, 5
** ----------------------------------------------------------------
** 
** PART INSTANCE: beam-2
** 
*System
          0.,       196.3,       1854.,          1.,       196.3,       1854.
          0.,       196.3,       1853.
*Node
   1816,        152.5,  -444.049988,         200.
   1817,           0.,  -444.049988,         200.
   1818,           0.,  -444.049988,           0.
   1819,        152.5,  -444.049988,           0.
   1820,        152.5,   444.049988,         200.
   1821,           0.,   444.049988,         200.
   1822,           0.,   444.049988,           0.
   1823,        152.5,   444.049988,           0.
   1824,       -152.5,  -444.049988,         200.
   1825,       -152.5,  -444.049988,           0.
   1826,       -152.5,   444.049988,         200.
   1827,       -152.5,   444.049988,           0.
   1828,           0.,  -444.049988,        1050.
   1829,       -152.5,  -444.049988,   914.400024
   1830,       -152.5,  -444.049988,        1050.
   1831,       -152.5,  -444.049988,   228.397263
   1832,           0.,   444.049988,        1050.
   1833,       -152.5,   444.049988,   914.400024
   1834,       -152.5,   444.049988,        1050.
   1835,       -152.5,   444.049988,   228.397263
** ... 1220 like lines cut
*Element, type=S4R
1699, 1816, 1842, 2131, 1851
1700, 1842, 1843, 2132, 2131
1701, 1843, 1817, 1844, 2132
1702, 1851, 2131, 2133, 1850
1703, 2131, 2132, 2134, 2133
1704, 2132, 1844, 1845, 2134
1705, 1850, 2133, 2135, 1849
1706, 2133, 2134, 2136, 2135
1707, 2134, 1845, 1846, 2136
1708, 1849, 2135, 1848, 1819
1709, 2135, 2136, 1847, 1848
1710, 2136, 1846, 1818, 1847
1711, 1820, 1852, 2137, 1861
1712, 1852, 1853, 2138, 2137
1713, 1853, 1821, 1854, 2138
1714, 1861, 2137, 2139, 1860
1715, 2137, 2138, 2140, 2139
1716, 2138, 1854, 1855, 2140
1717, 1860, 2139, 2141, 1859
1718, 2139, 2140, 2142, 2141
** ... 1150 like lines cut
*Nset, nset=beam-2_Set-1
 1816, 1817, 1818, 1819, 1820, 1821, 1822, 1823, 1824, 1825, 1826, 1827, 1828, 1829, 1830, 1831
 1832, 1833, 1834, 1835, 1836, 1837, 1838, 1839, 1840, 1841, 1842, 1843, 1844, 1845, 1846, 1847
 1848, 1849, 1850, 1851, 1852, 1853, 1854, 1855, 1856, 1857, 1858, 1859, 1860, 1861, 1862, 1863
 1864, 1865, 1866, 1867, 1868, 1903, 1904, 1905, 1906, 1907, 1908, 1909, 1910, 1911, 1912, 1913
 1914, 1915, 1916, 1917, 1918, 1919, 1920, 1921, 1922, 1923, 1924, 1925, 1926, 1927, 1928, 1929
 1930, 1931, 1932, 1933, 1934, 1935, 1936, 1937, 1938, 1939, 1940, 1941, 1942, 1943, 1944, 1945
 1946, 1947, 1948, 1949, 1950, 1951, 1952, 1953, 1954, 1955, 1956, 1957, 1958, 1959, 1960, 1961
 1962, 1963, 1964, 1965, 1966, 1967, 1968, 1969, 1970, 1971, 1972, 1973, 1974, 1975, 1976, 1977
 1978, 1979, 1980, 1981, 1982, 1983, 1984, 1985, 1986, 1987, 1988, 1989, 1990, 1991, 1992, 1993
 1994, 1995, 1996, 1997, 1998, 1999, 2000, 2001, 2002, 2003, 2004, 2005, 2006, 2007, 2008, 2009
 2010, 2011, 2012, 2013, 2014, 2015, 2016, 2017, 2018, 2019, 2020, 2021, 2022, 2023, 2024, 2025
 2026, 2027, 2028, 2029, 2030, 2031, 2032, 2033, 2034, 2035, 2036, 2037, 2038, 2039, 2040, 2041
 2042, 2043, 2044, 2045, 2063, 2064, 2065, 2066, 2067, 2068, 2069, 2070, 2071, 2072, 2073, 2074
 2075, 2076, 2077, 2078, 2079, 2080, 2081, 2082, 2083, 2084, 2085, 2086, 2087, 2088, 2089, 2090
 2091, 2092, 2093, 2094, 2095, 2096, 2097, 2098, 2099, 2100, 2101, 2102, 2103, 2104, 2105, 2106
 2107, 2108, 2109, 2110, 2111, 2112, 2113, 2114, 2115, 2116, 2117, 2118, 2119, 2120, 2121, 2122
 2123, 2124, 2125, 2126, 2127, 2128, 2129, 2130, 2131, 2132, 2133, 2134, 2135, 2136, 2137, 2138
 2139, 2140, 2141, 2142, 2143, 2144, 2145, 2146, 2147, 2148, 2200, 2201, 2202, 2203, 2204, 2205
 2206, 2207, 2208, 2209, 2210, 2211, 2212, 2213, 2214, 2215, 2216, 2217, 2218, 2219, 2220, 2221
 2222, 2223, 2224, 2225, 2226, 2227, 2228, 2229, 2230, 2231, 2232, 2233, 2234, 2235, 2236, 2237
** ... 15 like lines cut
*Elset, elset=beam-2_Set-1
 1699, 1700, 1701, 1702, 1703, 1704, 1705, 1706, 1707, 1708, 1709, 1710, 1711, 1712, 1713, 1714
 1715, 1716, 1717, 1718, 1719, 1720, 1721, 1722, 1723, 1724, 1725, 1726, 1727, 1728, 1729, 1730
 1731, 1732, 1733, 1734, 1807, 1808, 1809, 1810, 1811, 1812, 1813, 1814, 1815, 1816, 1817, 1818
 1819, 1820, 1821, 1822, 1823, 1824, 1825, 1826, 1827, 1828, 1829, 1830, 1831, 1832, 1833, 1834
 1835, 1836, 1837, 1838, 1839, 1840, 1841, 1842, 1843, 1844, 1845, 1846, 1847, 1848, 1849, 1850
 1851, 1852, 1853, 1854, 1855, 1856, 1857, 1858, 1859, 1860, 1861, 1862, 1863, 1864, 1865, 1866
 1867, 1868, 1869, 1870, 1871, 1872, 1873, 1874, 1875, 1876, 1877, 1878, 1879, 1880, 1881, 1882
 1883, 1884, 1885, 1886, 1887, 1888, 1889, 1890, 1891, 1892, 1893, 1894, 1895, 1896, 1897, 1898
 1899, 1900, 1901, 1902, 1903, 1904, 1905, 1906, 1907, 1908, 1909, 1910, 1911, 1912, 1913, 1914
 1915, 1916, 1917, 1918, 1919, 1920, 1921, 1922, 1923, 1924, 1925, 1926, 1927, 1928, 1929, 1930
 1931, 1932, 1933, 1934, 1935, 1936, 1937, 1938, 1939, 1940, 1941, 1942, 1943, 1944, 1945, 1946
 1947, 1948, 1949, 1950, 1951, 1952, 1953, 1954, 1955, 1956, 1957, 1958, 1959, 1960, 1961, 1962
 1963, 1964, 1965, 1966, 1967, 1968, 1969, 1970, 1971, 1972, 1973, 1974, 1975, 1976, 1977, 1978
 1979, 1980, 1981, 1982, 1983, 1984, 1985, 1986, 1987, 1988, 1989, 1990, 1991, 1992, 1993, 1994
 1995, 1996, 1997, 1998, 1999, 2000, 2001, 2002, 2003, 2004, 2005, 2006, 2007, 2008, 2009, 2010
 2011, 2012, 2013, 2014, 2015, 2016, 2017, 2018, 2019, 2020, 2021, 2022, 2023, 2024, 2025, 2026
 2027, 2028, 2659, 2660, 2661, 2662, 2663, 2664, 2665, 2666, 2667, 2668, 2669, 2670, 2671, 2672
 2673, 2674, 2675, 2676, 2677, 2678, 2679, 2680, 2681, 2682, 2683, 2684, 2685, 2686, 2687, 2688
 2689, 2690, 2691, 2692, 2693, 2694, 2695, 2696, 2697, 2698, 2699, 2700, 2701, 2702, 2703, 2704
 2705, 2706, 2707, 2708, 2709, 2710, 2711, 2712, 2713, 2714, 2715, 2716, 2717, 2718, 2719, 2720
** ... 10 like lines cut
*Nset, nset=beam-2_Set-2
 1817, 1818, 1821, 1822, 1828, 1832, 1844, 1845, 1846, 1854, 1855, 1856, 1869, 1870, 1871, 1872
 1873, 1874, 1875, 1876, 1877, 1878, 1879, 1880, 1881, 1882, 1883, 1884, 1885, 1886, 1887, 1888
 1889, 1890, 1891, 1892, 1893, 1894, 1895, 1896, 1897, 1898, 1899, 1900, 1901, 1902, 1910, 1911
 1912, 1913, 1914, 1915, 1916, 1917, 1918, 1919, 1920, 1921, 1922, 1923, 1924, 1925, 1926, 1927
 1928, 1929, 1930, 1931, 1932, 1933, 1934, 1935, 1936, 1937, 1938, 1939, 1940, 1941, 1942, 1943
 1978, 1979, 1980, 1981, 1982, 1983, 1984, 1985, 1986, 1987, 1988, 1989, 1990, 1991, 1992, 1993
 1994, 1995, 1996, 1997, 1998, 1999, 2000, 2001, 2002, 2003, 2004, 2005, 2006, 2007, 2008, 2009
 2010, 2011, 2046, 2047, 2048, 2049, 2050, 2051, 2052, 2053, 2054, 2055, 2056, 2057, 2058, 2059
 2060, 2061, 2062, 2149, 2150, 2151, 2152, 2153, 2154, 2155, 2156, 2157, 2158, 2159, 2160, 2161
 2162, 2163, 2164, 2165, 2166, 2167, 2168, 2169, 2170, 2171, 2172, 2173, 2174, 2175, 2176, 2177
 2178, 2179, 2180, 2181, 2182, 2183, 2184, 2185, 2186, 2187, 2188, 2189, 2190, 2191, 2192, 2193
 2194, 2195, 2196, 2197, 2198, 2199, 2342, 2343, 2344, 2345, 2346, 2347, 2348, 2349, 2350, 2351
 2352, 2353, 2354, 2355, 2356, 2357, 2358, 2359, 2360, 2361, 2362, 2363, 2364, 2365, 2366, 2367
 2368, 2369, 2370, 2371, 2372, 2373, 2374, 2375, 2376, 2377, 2378, 2379, 2380, 2381, 2382, 2383
 2384, 2385, 2386, 2387, 2388, 2389, 2390, 2391, 2392, 2393, 2394, 2395, 2396, 2397, 2398, 2399
 2400, 2401, 2402, 2403, 2404, 2405, 2406, 2407, 2408, 2409, 2410, 2411, 2412, 2413, 2414, 2415
 2416, 2417, 2418, 2419, 2420, 2421, 2422, 2423, 2424, 2425, 2426, 2427, 2428, 2429, 2430, 2431
 2432, 2433, 2434, 2435, 2436, 2437, 2438, 2439, 2440, 2441, 2442, 2443, 2444, 2445, 2446, 2447
 2448, 2449, 2450, 2451, 2452, 2453, 2454, 2455, 2456, 2457, 2458, 2459, 2460, 2461, 2462, 2463
 2464, 2465, 2466, 2467, 2468, 2469, 2470, 2471, 2472, 2473, 2474, 2475, 2476, 2477, 2478, 2479
** ... 28 like lines cut
*Elset, elset=beam-2_Set-2
1735,1736,1737,1738,1739,1740,1741,1742,1743,1744,1745,1746,1747,1748,1749,1750
1751,1752,1753,1754,1755,1756,1757,1758,1759,1760,1761,1762,1763,1764,1765,1766
1767,1768,1769,1770,1771,1772,1773,1774,1775,1776,1777,1778,1779,1780,1781,1782
1783,1784,1785,1786,1787,1788,1789,1790,1791,1792,1793,1794,1795,1796,1797,1798
1799,1800,1801,1802,1803,1804,1805,1806,2029,2030,2031,2032,2033,2034,2035,2036
2037,2038,2039,2040,2041,2042,2043,2044,2045,2046,2047,2048,2049,2050,2051,2052
2053,2054,2055,2056,2057,2058,2059,2060,2061,2062,2063,2064,2065,2066,2067,2068
2069,2070,2071,2072,2073,2074,2075,2076,2077,2078,2079,2080,2081,2082,2083,2084
2085,2086,2087,2088,2089,2090,2091,2092,2093,2094,2095,2096,2097,2098,2099,2100
2101,2102,2103,2104,2105,2106,2107,2108,2109,2110,2111,2112,2113,2114,2115,2116
2117,2118,2119,2120,2121,2122,2123,2124,2125,2126,2127,2128,2129,2130,2131,2132
2133,2134,2135,2136,2137,2138,2139,2140,2141,2142,2143,2144,2145,2146,2147,2148
2149,2150,2151,2152,2153,2154,2155,2156,2157,2158,2159,2160,2161,2162,2163,2164
2165,2166,2167,2168,2169,2170,2171,2172,2173,2174,2175,2176,2177,2178,2179,2180
2181,2182,2183,2184,2185,2186,2187,2188,2189,2190,2191,2192,2193,2194,2195,2196
2197,2198,2199,2200,2201,2202,2203,2204,2205,2206,2207,2208,2209,2210,2211,2212
2213,2214,2215,2216,2217,2218,2219,2220,2221,2222,2223,2224,2225,2226,2227,2228
2229,2230,2231,2232,2233,2234,2235,2236,2237,2238,2239,2240,2241,2242,2243,2244
2245,2246,2247,2248,2249,2250,2251,2252,2253,2254,2255,2256,2257,2258,2259,2260
2261,2262,2263,2264,2265,2266,2267,2268,2269,2270,2271,2272,2273,2274,2275,2276
** ... 24 like lines cut
*Nset, nset=beam-2_beam_col_interf
1818,1819,1822,1823,1825,1827,1847,1848,1857,1858,1867,1868,1886,1887,1888,1889
1890,1891,1892,1893,1894,1895,1896,1897,1898,1899,1900,1901,1902,1908,1909
*Elset, elset=beam-2_beam_col_interf
1708,1709,1710,1720,1721,1722,1732,1733,1734,1789,1790,1791,1792,1793,1794,1795
1796,1797,1798,1799,1800,1801,1802,1803,1804,1805,1806,1816,1817,1818
*Nset, nset=beam-2_beam_couple_interf
1828,1830,1832,1834,1837,1840,1944,1945,2012,2013,2046,2047,2048,2049,2050,2051
2052,2053,2054,2055,2056,2057,2058,2059,2060,2061,2062,2095,2096,2129,2130
*Elset, elset=beam-2_beam_couple_interf
 1876, 1877, 1878, 1981, 1982, 1983, 2641, 2642, 2643, 2644, 2645, 2646, 2647, 2648, 2649, 2650
 2651, 2652, 2653, 2654, 2655, 2656, 2657, 2658, 2716, 2717, 2718, 2821, 2822, 2823
*Nset, nset=beam-2_all_nodes, generate
 1816,  3055,     1
*Elset, elset=beam-2_all_nodes, generate
 1699,  2868,     1
** Section: beam_flange
*Shell Section, elset=beam-2_Set-1, material=steel_sac-avg
23.9, 5
** Section: beam_web
*Shell Section, elset=beam-2_Set-2, material=steel_sac-avg
15.9, 5
** ----------------------------------------------------------------
** 
** PART INSTANCE: beam-beam_dom-1
** 
*System
          0.,      1246.3,       1854., 3.74939945665464e-33,      1247.3,       1854.
 -6.12323399573677e-17,      1246.3,       1855.
*Node
   3056,           0.,           0.,           0.
   3057,   2575.66406,           0.,           0.
   3058,        2912.,           0.,           0.
   3059,   515.132813,           0.,           0.
   3060,   1030.26563,           0.,           0.
   3061,   1545.39844,           0.,           0.
   3062,   2060.53125,           0.,           0.
   3063,   257.566406,           0.,           0.
   3064,   772.699219,           0.,           0.
   3065,   1287.83203,           0.,           0.
   3066,   1802.96484,           0.,           0.
   3067,   2318.09766,           0.,           0.
   3068,   2743.83203,           0.,           0.
*Element, type=B32OS
2869, 3056, 3063, 3059
2870, 3059, 3064, 3060
2871, 3060, 3065, 3061
2872, 3061, 3066, 3062
2873, 3062, 3067, 3057
2874, 3057, 3068, 3058
*Nset, nset=beam-beam_dom-1_Set-1, generate
3056, 3068,   1
*Elset, elset=beam-beam_dom-1_Set-1, generate
2869, 2874,  1
*Nset, nset=beam-beam_dom-1_Set-2, generate
3056, 3068,   1
*Elset, elset=beam-beam_dom-1_Set-2, generate
2869, 2874,  1
*Nset, nset=beam-beam_dom-1_roller_nodes
3057,
*Nset, nset=beam-beam_dom-1_beam_end_node
3058,
*Nset, nset=beam-beam_dom-1_interf_node
3056,
*Nset, nset=beam-beam_dom-1_all_nodes, generate
3056, 3068,   1
*Elset, elset=beam-beam_dom-1_all_nodes, generate
2869, 2874,  1
** Section: beam_dom_section  Profile: w36x150
*Beam Section, elset=beam-beam_dom-1_Set-1, material=steel_sac-avg, temperature=GRADIENTS, section=I
456., 912., 305., 305., 23.9, 23.9, 15.9
-1.,0.,-6.12323e-17
** ----------------------------------------------------------------
** 
** PART INSTANCE: beam-beam_dom-2
** 
*System
          0.,     -1246.3,       1854., 3.74939945665464e-33,     -1247.3,       1854.
 6.12323399573677e-17,     -1246.3,       1853.
*Node
   3069,           0.,           0.,           0.
   3070,   2575.66406,           0.,           0.
   3071,        2912.,           0.,           0.
   3072,   515.132813,           0.,           0.
   3073,   1030.26563,           0.,           0.
   3074,   1545.39844,           0.,           0.
   3075,   2060.53125,           0.,           0.
   3076,   257.566406,           0.,           0.
   3077,   772.699219,           0.,           0.
   3078,   1287.83203,           0.,           0.
   3079,   1802.96484,           0.,           0.
   3080,   2318.09766,           0.,           0.
   3081,   2743.83203,           0.,           0.
*Element, type=B32OS
2875, 3069, 3076, 3072
2876, 3072, 3077, 3073
2877, 3073, 3078, 3074
2878, 3074, 3079, 3075
2879, 3075, 3080, 3070
2880, 3070, 3081, 3071
*Nset, nset=beam-beam_dom-2_Set-1, generate
3069, 3081,   1
*Elset, elset=beam-beam_dom-2_Set-1, generate
2875, 2880,  1
*Nset, nset=beam-beam_dom-2_Set-2, generate
3069, 3081,   1
*Elset, elset=beam-beam_dom-2_Set-2, generate
2875, 2880,  1
*Nset, nset=beam-beam_dom-2_roller_nodes
3070,
*Nset, nset=beam-beam_dom-2_beam_end_node
3071,
*Nset, nset=beam-beam_dom-2_interf_node
3069,
*Nset, nset=beam-beam_dom-2_all_nodes, generate
3069, 3081,   1
*Elset, elset=beam-beam_dom-2_all_nodes, generate
2875, 2880,  1
** Section: beam_dom_section  Profile: w36x150
*Beam Section, elset=beam-beam_dom-2_Set-1, material=steel_sac-avg, temperature=GRADIENTS, section=I
456., 912., 305., 305., 23.9, 23.9, 15.9
-1.,0.,-6.12323e-17
** ----------------------------------------------------------------
** 
** PART INSTANCE: column-beam_dom-1
** 
*System
          0.,          0.,          0., 6.12323399573677e-17,          0.,          1.
          0.,          1.,          0.
*Node
   3082,           0.,           0.,           0.
   3083,         326.,           0.,           0.
   3084,         652.,           0.,           0.
   3085,         978.,           0.,           0.
   3086,        1304.,           0.,           0.
   3087,         163.,           0.,           0.
   3088,         489.,           0.,           0.
   3089,         815.,           0.,           0.
   3090,        1141.,           0.,           0.
*Element, type=B32OS
2881, 3082, 3087, 3083
2882, 3083, 3088, 3084
2883, 3084, 3089, 3085
2884, 3085, 3090, 3086
*Nset, nset=column-beam_dom-1_Set-1, generate
3082, 3090,  1
*Elset, elset=column-beam_dom-1_Set-1, generate
2881, 2884,  1
*Nset, nset=column-beam_dom-1_Set-2, generate
3082, 3090,  1
*Elset, elset=column-beam_dom-1_Set-2, generate
2881, 2884,  1
*Nset, nset=column-beam_dom-1_top_node
3086,
*Nset, nset=column-beam_dom-1_bot_node
3082,
*Nset, nset=column-beam_dom-1_all_nodes, generate
3082, 3090,  1
*Elset, elset=column-beam_dom-1_all_nodes, generate
2881, 2884,  1
** Section: column_dom_section  Profile: w14x398
*Beam Section, elset=column-beam_dom-1_Set-1, material=steel_sac-avg, temperature=GRADIENTS, section=I
232.5, 465., 422., 422., 72.4, 72.4, 45.
1.,0.,-6.12323e-17
** ----------------------------------------------------------------
** 
** PART INSTANCE: column-beam_dom-3
** 
*System
          0.,          0.,       2404., 6.12323399573677e-17,          0.,       2405.
          0.,          1.,       2404.
*Node
   3091,           0.,           0.,           0.
   3092,         326.,           0.,           0.
   3093,         652.,           0.,           0.
   3094,         978.,           0.,           0.
   3095,        1304.,           0.,           0.
   3096,         163.,           0.,           0.
   3097,         489.,           0.,           0.
   3098,         815.,           0.,           0.
   3099,        1141.,           0.,           0.
*Element, type=B32OS
2885, 3091, 3096, 3092
2886, 3092, 3097, 3093
2887, 3093, 3098, 3094
2888, 3094, 3099, 3095
*Nset, nset=column-beam_dom-3_Set-1, generate
3091, 3099,  1
*Elset, elset=column-beam_dom-3_Set-1, generate
2885, 2888,  1
*Nset, nset=column-beam_dom-3_Set-2, generate
3091, 3099,  1
*Elset, elset=column-beam_dom-3_Set-2, generate
2885, 2888,  1
*Nset, nset=column-beam_dom-3_top_node
3095,
*Nset, nset=column-beam_dom-3_bot_node
3091,
*Nset, nset=column-beam_dom-3_all_nodes, generate
3091, 3099,  1
*Elset, elset=column-beam_dom-3_all_nodes, generate
2885, 2888,  1
** Section: column_dom_section  Profile: w14x398
*Beam Section, elset=column-beam_dom-3_Set-1, material=steel_sac-avg, temperature=GRADIENTS, section=I
232.5, 465., 422., 422., 72.4, 72.4, 45.
1.,0.,-6.12323e-17
*System
*Node
   3100,  7.98469702e-14,           0.,        3709.
*Element, type=CONN3D2
2889, 3095, 3100
*Connector Section, elset=Wire-1-Set-1, behavior=ConnSect-1
Hinge,
"Datum csys-2",
*Nset, nset=Wire-1-Set-1
3100,
*Nset, nset=Wire-1-Set-1
3095,
*Elset, elset=Wire-1-Set-1
 2889,
*Nset, nset=beam_corner_nodes
590,594,597,600
*Nset, nset=beam_corner_nodes
1830,1834,1837,1840
*Nset, nset=col_bot
3082,
*Nset, nset=col_top
3095,
*Nset, nset=hinge_node
3100,
*Nset, nset=s_Set-5
578,579,582,583,585,587,607,608,617,618,627,628,646,647,648,649
650,651,652,653,654,655,656,657,658,659,660,661,662,668,669
*Elset, elset=s_Set-5
 538, 539, 540, 550, 551, 552, 562, 563, 564, 619, 620, 621, 622, 623, 624, 625
 626, 627, 628, 629, 630, 631, 632, 633, 634, 635, 636, 646, 647, 648
*Nset, nset=t_Set-3
   1,   4,   5,   7,   9,  12,  58,  59,  60,  61,  62,  63,  88,  89,  90,  91
  92,  93,  94, 123, 124, 125, 174, 175, 176
*Elset, elset=t_Set-3
   1,  23,  45,  67, 110, 132, 154, 176, 177, 178, 179, 180, 181, 182, 183, 184
 374, 396, 418, 440, 441, 463, 485, 507
*Nset, nset=t_Set-4
   2,   3,   6,   8,  10,  11,  34,  35,  36,  85,  86,  87,  95,  96,  97,  98
  99, 100, 101, 147, 148, 149, 150, 151, 152
*Elset, elset=t_Set-4
  22,  44,  66,  88,  89, 111, 133, 155, 345, 346, 347, 348, 349, 350, 351, 352
 353, 375, 397, 419, 462, 484, 506, 528
*Elset, elset=_m_Surf-1_SPOS, generate
   1,  176,    1
*Surface, type=ELEMENT, name=m_Surf-1
_m_Surf-1_SPOS, SPOS
*Elset, elset=_m_Surf-2_SNEG, generate
 353,  528,    1
*Surface, type=ELEMENT, name=m_Surf-2
_m_Surf-2_SNEG, SNEG
*Surface, type=NODE, name=beam-1_beam_col_interf_CNS_
beam-1_beam_col_interf, 1.
*Surface, type=NODE, name=beam-2_beam_col_interf_CNS_
beam-2_beam_col_interf, 1.
*Surface, type=NODE, name=beam-2_beam_couple_interf_CNS_
beam-2_beam_couple_interf, 1.
*Surface, type=NODE, name=beam-1_beam_couple_interf_CNS_
beam-1_beam_couple_interf, 1.
*Surface, type=NODE, name=column-1_bot_interf_CNS_
column-1_bot_interf, 1.
*Surface, type=NODE, name=column-1_top_interf_CNS_
column-1_top_interf, 1.
*Orientation, name="Datum csys-2"
          0.,           0.,           1.,           0.,           1.,           0.
1, 0.
** Constraint: Constraint-3
*Tie, name=Constraint-3, adjust=yes
beam-1_beam_col_interf_CNS_, m_Surf-1
** Constraint: Constraint-3-Copy
*Tie, name=Constraint-3-Copy, adjust=yes
beam-2_beam_col_interf_CNS_, m_Surf-2
** Constraint: beam_couple-1
*Coupling, constraint name=beam_couple-1, ref node=beam-beam_dom-1_interf_node, surface=beam-2_beam_couple_interf_CNS_
*Kinematic
1, 1
2, 2
3, 3
** Constraint: beam_couple-2
*Coupling, constraint name=beam_couple-2, ref node=beam-beam_dom-2_interf_node, surface=beam-1_beam_couple_interf_CNS_
*Kinematic
1, 1
2, 2
3, 3
** Constraint: col_couple-1
*Coupling, constraint name=col_couple-1, ref node=column-beam_dom-1_top_node, surface=column-1_bot_interf_CNS_
*Kinematic
1, 1
2, 2
3, 3
** Constraint: col_couple-2
*Coupling, constraint name=col_couple-2, ref node=column-beam_dom-3_bot_node, surface=column-1_top_interf_CNS_
*Kinematic
1, 1
2, 2
3, 3
*Connector Behavior, name=ConnSect-1
*Connector Elasticity, component=4
 1e+10,
*Amplitude, name=lateral_amp, definition=EQUALLY SPACED, fixed interval=1.
             0.,     0.002784348,       5.1271551,     0.150808944,      7.68108827,     12.75919762,     0.442028961,    -6.931781793
   -12.94652249,    -0.410360876,     8.742618913,     12.89386931,     0.094385003,     -6.76835197,    -12.69018989,    -1.092262865
   -1.092413614,     5.281159999,     12.75746801,      0.09116187,    -7.121188958,    -12.33929041,    -0.763583182,     8.224215073
    12.71614234,     0.337136359,     -7.12456919,    -12.69275008,    -1.162503771,     7.019675699,     12.58506183,     0.324143624
   -7.782298888,    -12.34323351,    -1.061486574,      7.28393641,     12.76386538,     0.324291706,     -6.06142425,    -12.39677048
   -0.783291042,    -0.779795494,     7.168502935,      17.3195568,     0.524111982,    -7.568481815,    -17.18614711,    -1.057740201
    8.999902244,     17.21452171,     0.482017578,    -8.100013772,    -17.19314799,    -1.107414219,     9.109984574,     17.18570756
    0.339980905,    -7.514522182,    -16.71729194,    -1.019413125,     8.398640302,     17.09194753,     0.206426181,    -7.307193539
   -16.68170387,    -0.834678798,      7.86626316,     17.44676051,     0.081023587,    -7.979332022,     -16.6718041,    -1.269764161
    8.439383553,     17.21481596,     0.102936421,    -7.398555561,     -16.6744984,    -0.977257126,    -0.977200611,     19.19331379
    25.88343236,     0.310119776,    -13.94225939,    -25.88564076,     -0.42879772,     13.35930818,     26.30146442,     0.358496235
   -13.04560027,     -25.7129741,    -0.782263485,     13.05921417,     26.11881619,     0.435996715,    -13.39995123,    -25.27800215
   -0.690296308,     13.19368342,     26.56044713,     0.405544274,    -12.69198871,    -25.42259228,    -0.992418767,     13.18792244
    26.34826633,    -0.054919118,    -12.96877924,    -25.10218475,    -1.039916767,     12.83031026,     26.17242314,     0.493659033
   -12.77248169,    -25.24140723,    -0.856400497,    -0.856668213,     17.02872172,     32.37350002,     35.55344464,     4.111648622
   -16.86447313,    -27.46744456,    -34.34711787,    -6.608725162,     12.90924596,     31.87173014,     35.62504267,     24.03362973
    6.368958941,    -16.77976032,    -27.06165162,    -34.61752487,    -24.87088142,    -11.41609972,    -6.258612324,     15.36484265
    29.38271365,     35.79868583,     22.57613506,     11.30652539,     5.830961922,    -10.80344601,    -22.62172717,    -34.65968862
   -24.39535532,    -14.86308623,    -6.632564078,     8.562793644,     22.38314002,     35.61271834,     26.06198013,     15.10656948
     6.17522133,    -10.66462574,      -20.777287,    -34.67158788,    -26.79463323,    -16.84422869,    -6.336707418,    -6.336105184
** ... 38 like lines cut
** 
** MATERIALS
** 
*Material, name=elastic
*Elastic
200000., 0.3
*Material, name=steel_flange
*Elastic
200000., 0.3
*Plastic, hardening=COMBINED, datatype=PARAMETERS, number backstresses=2
 318.47,  11608.,  145.22, 1026.33,    4.68
*Cyclic Hardening, parameters
 318.47, 100.72,     8.
*Material, name=steel_sac-avg
*Elastic
207300., 0.3
*Plastic, hardening=COMBINED, datatype=PARAMETERS, number backstresses=1
352., 2305.55,  20.153
*Cyclic Hardening, parameters
352., 61.6014, 8.95688
*Material, name=steel_sac-avg-lowfy
*Elastic
207300., 0.3
*Plastic, hardening=COMBINED, datatype=PARAMETERS, number backstresses=1
320., 2305.55,  20.153
*Cyclic Hardening, parameters
320., 61.6014, 8.95688
*Material, name=steel_web
*Elastic
200000., 0.3
*Plastic, hardening=COMBINED, datatype=PARAMETERS, number backstresses=2
 339.18, 8716.08,  118.47, 1182.05,    5.22
*Cyclic Hardening, parameters
 339.18, 77.52,  9.29
** 
** BOUNDARY CONDITIONS
** 
** Name: beam_lateral_hold1 Type: Displacement/Rotation
*Boundary
beam-beam_dom-1_beam_end_node, 1, 1
** Name: beam_lateral_hold2 Type: Displacement/Rotation
*Boundary
beam-beam_dom-2_beam_end_node, 1, 1
** Name: bot_fix Type: Displacement/Rotation
*Boundary
column-beam_dom-1_bot_node, 1, 1
column-beam_dom-1_bot_node, 2, 2
column-beam_dom-1_bot_node, 3, 3
** Name: roller_support1 Type: Displacement/Rotation
*Boundary
beam-beam_dom-1_roller_nodes, 3, 3
** Name: roller_support2 Type: Displacement/Rotation
*Boundary
beam-beam_dom-2_roller_nodes, 3, 3
** Name: top_fix Type: Displacement/Rotation
*Boundary
hinge_node, 1, 1
hinge_node, 6, 6
*Imperfection, input=DBBW-Macro-KC-NoParts-Imp.txt
** ----------------------------------------------------------------
** 
** STEP: cyclic_loading
** 
*Step, name=cyclic_loading, nlgeom=YES, inc=1000000000
*Static
1., 463., 1e-10, 1.
** 
** BOUNDARY CONDITIONS
** 
** Name: top_disp_control Type: Displacement/Rotation
*Boundary, amplitude=lateral_amp
hinge_node, 2, 2, 1.
** 
** OUTPUT REQUESTS
** 
*Restart, write, frequency=0
** 
** FIELD OUTPUT: F-Output-1
** 
*Output, field, variable=PRESELECT, time interval=1.
** 
** HISTORY OUTPUT: H-Output-1
** 
*Output, history, variable=PRESELECT
*End Step
