*Heading
** Job name: NIST_A-WIKC Model name: NIST_A-WIKC
** Generated by: Abaqus/CAE 6.14-1
*Preprint, echo=NO, model=NO, history=NO, contact=NO
** ----------------------------------------------------------------
** 
** PART INSTANCE: top_segment
** 
*Node
      1,           0.,  -374.644989,           0.
      2,           0.,  -374.644989,   1828.67004
      3,       -133.5,  -374.644989,   1828.67004
      4,       -133.5,  -374.644989,           0.
      5,        133.5,  -374.644989,           0.
      6,        133.5,  -374.644989,   1828.67004
      7,           0.,   374.644989,           0.
      8,           0.,   374.644989,   1828.67004
      9,       -133.5,   374.644989,   1828.67004
     10,       -133.5,   374.644989,           0.
     11,        133.5,   374.644989,           0.
     12,        133.5,   374.644989,   1828.67004
     13,           0.,  -374.644989,   25.0502739
     14,           0.,  -374.644989,   50.1005478
     15,           0.,  -374.644989,   75.1508255
     16,           0.,  -374.644989,   100.201096
     17,           0.,  -374.644989,   125.251373
     18,           0.,  -374.644989,   150.301651
     19,           0.,  -374.644989,   175.351913
     20,           0.,  -374.644989,   200.402191
** ... 3754 like lines cut
*Element, type=S4R
  1,   1,  13, 535, 164
  2,  13,  14, 536, 535
  3,  14,  15, 537, 536
  4,  15,  16, 538, 537
  5,  16,  17, 539, 538
  6,  17,  18, 540, 539
  7,  18,  19, 541, 540
  8,  19,  20, 542, 541
  9,  20,  21, 543, 542
 10,  21,  22, 544, 543
 11,  22,  23, 545, 544
 12,  23,  24, 546, 545
 13,  24,  25, 547, 546
 14,  25,  26, 548, 547
 15,  26,  27, 549, 548
 16,  27,  28, 550, 549
 17,  28,  29, 551, 550
 18,  29,  30, 552, 551
 19,  30,  31, 553, 552
 20,  31,  32, 554, 553
** ... 3630 like lines cut
*Nset, nset=top_segment__PickedSet2
    1,    2,    3,    4,    5,    6,    7,    8,    9,   10,   11,   12,   13,   14,   15,   16
   17,   18,   19,   20,   21,   22,   23,   24,   25,   26,   27,   28,   29,   30,   31,   32
   33,   34,   35,   36,   37,   38,   39,   40,   41,   42,   43,   44,   45,   46,   47,   48
   49,   50,   51,   52,   53,   54,   55,   56,   57,   58,   59,   60,   61,   62,   63,   64
   65,   66,   67,   68,   69,   70,   71,   72,   73,   74,   75,   76,   77,   78,   79,   80
   81,   82,   83,   84,   85,   86,   87,   88,   89,   90,   91,   92,   93,   94,   95,   96
   97,   98,   99,  100,  101,  102,  103,  104,  105,  106,  107,  108,  109,  110,  111,  112
  113,  114,  115,  116,  117,  118,  119,  120,  121,  122,  123,  124,  125,  126,  127,  128
  129,  130,  131,  132,  133,  134,  135,  136,  137,  138,  139,  140,  141,  142,  143,  144
  145,  146,  147,  148,  149,  150,  151,  152,  153,  154,  155,  156,  157,  158,  159,  160
  161,  162,  163,  164,  165,  166,  167,  168,  169,  170,  171,  172,  173,  174,  175,  176
  177,  178,  179,  180,  181,  182,  183,  184,  185,  186,  187,  188,  189,  190,  191,  192
  193,  194,  195,  196,  197,  198,  199,  200,  201,  202,  203,  204,  205,  206,  207,  208
  209,  210,  211,  212,  213,  214,  215,  216,  217,  218,  219,  220,  221,  222,  223,  224
  225,  226,  227,  228,  229,  230,  231,  232,  233,  234,  235,  236,  237,  238,  239,  240
  241,  242,  243,  244,  245,  246,  247,  248,  249,  250,  251,  252,  253,  254,  255,  256
  257,  258,  259,  260,  261,  262,  263,  264,  265,  266,  267,  268,  269,  270,  271,  272
  273,  274,  275,  276,  277,  278,  279,  280,  281,  282,  283,  284,  285,  286,  287,  288
  289,  290,  291,  292,  293,  294,  295,  296,  297,  298,  299,  300,  301,  302,  303,  304
  305,  306,  307,  308,  309,  310,  311,  312,  313,  314,  315,  316,  317,  318,  319,  320
** ... 82 like lines cut
*Elset, elset=top_segment__PickedSet2, generate
    1,  1460,     1
*Nset, nset=top_segment__G3
    1,    2,    7,    8,   13,   14,   15,   16,   17,   18,   19,   20,   21,   22,   23,   24
   25,   26,   27,   28,   29,   30,   31,   32,   33,   34,   35,   36,   37,   38,   39,   40
   41,   42,   43,   44,   45,   46,   47,   48,   49,   50,   51,   52,   53,   54,   55,   56
   57,   58,   59,   60,   61,   62,   63,   64,   65,   66,   67,   68,   69,   70,   71,   72
   73,   74,   75,   76,   77,   78,   79,   80,   81,   82,   83,   84,  245,  246,  247,  248
  249,  250,  251,  252,  253,  254,  255,  256,  257,  258,  259,  260,  261,  262,  263,  264
  265,  266,  267,  268,  269,  270,  271,  272,  273,  274,  275,  276,  277,  278,  279,  280
  281,  282,  283,  284,  285,  286,  287,  288,  289,  290,  291,  292,  293,  294,  295,  296
  297,  298,  299,  300,  301,  302,  303,  304,  305,  306,  307,  308,  309,  310,  311,  312
  313,  314,  315,  316,  477,  478,  479,  480,  481,  482,  483,  484,  485,  486,  487,  488
  489,  490,  491,  492,  493,  494,  495,  496,  497,  498,  499,  500,  501,  502,  503,  504
  505,  506,  507,  508,  509,  510,  511,  512,  513,  514,  515,  516,  517,  518,  519,  520
  521,  522,  523,  524,  525,  526,  527,  528,  529,  530,  531,  532,  533,  534, 1687, 1688
 1689, 1690, 1691, 1692, 1693, 1694, 1695, 1696, 1697, 1698, 1699, 1700, 1701, 1702, 1703, 1704
 1705, 1706, 1707, 1708, 1709, 1710, 1711, 1712, 1713, 1714, 1715, 1716, 1717, 1718, 1719, 1720
 1721, 1722, 1723, 1724, 1725, 1726, 1727, 1728, 1729, 1730, 1731, 1732, 1733, 1734, 1735, 1736
 1737, 1738, 1739, 1740, 1741, 1742, 1743, 1744, 1745, 1746, 1747, 1748, 1749, 1750, 1751, 1752
 1753, 1754, 1755, 1756, 1757, 1758, 1759, 1760, 1761, 1762, 1763, 1764, 1765, 1766, 1767, 1768
 1769, 1770, 1771, 1772, 1773, 1774, 1775, 1776, 1777, 1778, 1779, 1780, 1781, 1782, 1783, 1784
 1785, 1786, 1787, 1788, 1789, 1790, 1791, 1792, 1793, 1794, 1795, 1796, 1797, 1798, 1799, 1800
** ... 124 like lines cut
*Elset, elset=top_segment__G3, generate
 1461,  3650,     1
*Nset, nset=top_segment_shell_top_nodes
   2,   3,   6,   8,   9,  12,  85,  86,  87,  88, 241, 242, 243, 244, 317, 318
 319, 320, 473, 474, 475, 476, 477, 478, 479, 480, 481, 482, 483, 484, 485, 486
 487, 488, 489, 490, 491, 492, 493, 494, 495, 496, 497, 498, 499, 500, 501, 502
 503, 504, 505
*Elset, elset=top_segment_shell_top_nodes
   73,  146,  219,  292,  365,  366,  439,  512,  585,  658,  803,  876,  949, 1022, 1095, 1096
 1169, 1242, 1315, 1388, 1461, 1462, 1463, 1464, 1465, 1466, 1467, 1468, 1469, 1470, 1471, 1472
 1473, 1474, 1475, 1476, 1477, 1478, 1479, 1480, 1481, 1482, 1483, 1484, 1485, 1486, 1487, 1488
 1489, 1490
*Nset, nset=top_segment_shell_bot_nodes
   1,   4,   5,   7,  10,  11, 161, 162, 163, 164, 165, 166, 167, 168, 393, 394
 395, 396, 397, 398, 399, 400, 506, 507, 508, 509, 510, 511, 512, 513, 514, 515
 516, 517, 518, 519, 520, 521, 522, 523, 524, 525, 526, 527, 528, 529, 530, 531
 532, 533, 534
*Elset, elset=top_segment_shell_bot_nodes
    1,   74,  147,  220,  293,  438,  511,  584,  657,  730,  731,  804,  877,  950, 1023, 1168
 1241, 1314, 1387, 1460, 3621, 3622, 3623, 3624, 3625, 3626, 3627, 3628, 3629, 3630, 3631, 3632
 3633, 3634, 3635, 3636, 3637, 3638, 3639, 3640, 3641, 3642, 3643, 3644, 3645, 3646, 3647, 3648
 3649, 3650
** Section: flange_section
*Shell Section, elset=top_segment__PickedSet2, material=steel_chabouche-flange
29.21, 5
** Section: web_section
*Shell Section, elset=top_segment__G3, material=steel_chabouche-web
16.51, 5
** ----------------------------------------------------------------
** 
** PART INSTANCE: beam_segment-1
** 
*System
          0.,          0.,     1828.67, 6.12323399573677e-17,          0.,     1829.67
          0.,          1.,     1828.67
*Node
   3775,           0.,           0.,           0.
   3776,   914.335022,           0.,           0.
   3777,   1828.67004,           0.,           0.
   3778,   457.167511,           0.,           0.
   3779,   1371.50244,           0.,           0.
*Element, type=B31OS
3651, 3775, 3778
3652, 3778, 3776
3653, 3776, 3779
3654, 3779, 3777
*Nset, nset=beam_segment-1_Set-1, generate
3775, 3779,  1
*Elset, elset=beam_segment-1_Set-1, generate
3651, 3654,  1
*Nset, nset=beam_segment-1_Set-2, generate
3775, 3779,  1
*Elset, elset=beam_segment-1_Set-2, generate
3651, 3654,  1
** Section: beam_section  Profile: w30x148
*Beam Section, elset=beam_segment-1_Set-1, material=steel_chabouche-flange, temperature=GRADIENTS, section=I
339.25, 778.5, 267., 267., 29.2, 29.2, 16.5
1.,0.,-6.12323e-17
** ----------------------------------------------------------------
** 
** PART INSTANCE: shell_segment-1
** 
*System
          0.,          0.,     3657.34,          1.,          0.,     3657.34
*Node
   3780,           0.,  -374.644989,           0.
   3781,           0.,  -374.644989,   1828.67004
   3782,       -133.5,  -374.644989,   1828.67004
   3783,       -133.5,  -374.644989,           0.
   3784,        133.5,  -374.644989,           0.
   3785,        133.5,  -374.644989,   1828.67004
   3786,           0.,   374.644989,           0.
   3787,           0.,   374.644989,   1828.67004
   3788,       -133.5,   374.644989,   1828.67004
   3789,       -133.5,   374.644989,           0.
   3790,        133.5,   374.644989,           0.
   3791,        133.5,   374.644989,   1828.67004
   3792,           0.,  -374.644989,   25.0502739
   3793,           0.,  -374.644989,   50.1005478
   3794,           0.,  -374.644989,   75.1508255
   3795,           0.,  -374.644989,   100.201096
   3796,           0.,  -374.644989,   125.251373
   3797,           0.,  -374.644989,   150.301651
   3798,           0.,  -374.644989,   175.351913
   3799,           0.,  -374.644989,   200.402191
** ... 3754 like lines cut
*Element, type=S4R
3655, 3780, 3792, 4314, 3943
3656, 3792, 3793, 4315, 4314
3657, 3793, 3794, 4316, 4315
3658, 3794, 3795, 4317, 4316
3659, 3795, 3796, 4318, 4317
3660, 3796, 3797, 4319, 4318
3661, 3797, 3798, 4320, 4319
3662, 3798, 3799, 4321, 4320
3663, 3799, 3800, 4322, 4321
3664, 3800, 3801, 4323, 4322
3665, 3801, 3802, 4324, 4323
3666, 3802, 3803, 4325, 4324
3667, 3803, 3804, 4326, 4325
3668, 3804, 3805, 4327, 4326
3669, 3805, 3806, 4328, 4327
3670, 3806, 3807, 4329, 4328
3671, 3807, 3808, 4330, 4329
3672, 3808, 3809, 4331, 4330
3673, 3809, 3810, 4332, 4331
3674, 3810, 3811, 4333, 4332
** ... 3630 like lines cut
*Nset, nset=shell_segment-1__PickedSet2
 3780, 3781, 3782, 3783, 3784, 3785, 3786, 3787, 3788, 3789, 3790, 3791, 3792, 3793, 3794, 3795
 3796, 3797, 3798, 3799, 3800, 3801, 3802, 3803, 3804, 3805, 3806, 3807, 3808, 3809, 3810, 3811
 3812, 3813, 3814, 3815, 3816, 3817, 3818, 3819, 3820, 3821, 3822, 3823, 3824, 3825, 3826, 3827
 3828, 3829, 3830, 3831, 3832, 3833, 3834, 3835, 3836, 3837, 3838, 3839, 3840, 3841, 3842, 3843
 3844, 3845, 3846, 3847, 3848, 3849, 3850, 3851, 3852, 3853, 3854, 3855, 3856, 3857, 3858, 3859
 3860, 3861, 3862, 3863, 3864, 3865, 3866, 3867, 3868, 3869, 3870, 3871, 3872, 3873, 3874, 3875
 3876, 3877, 3878, 3879, 3880, 3881, 3882, 3883, 3884, 3885, 3886, 3887, 3888, 3889, 3890, 3891
 3892, 3893, 3894, 3895, 3896, 3897, 3898, 3899, 3900, 3901, 3902, 3903, 3904, 3905, 3906, 3907
 3908, 3909, 3910, 3911, 3912, 3913, 3914, 3915, 3916, 3917, 3918, 3919, 3920, 3921, 3922, 3923
 3924, 3925, 3926, 3927, 3928, 3929, 3930, 3931, 3932, 3933, 3934, 3935, 3936, 3937, 3938, 3939
 3940, 3941, 3942, 3943, 3944, 3945, 3946, 3947, 3948, 3949, 3950, 3951, 3952, 3953, 3954, 3955
 3956, 3957, 3958, 3959, 3960, 3961, 3962, 3963, 3964, 3965, 3966, 3967, 3968, 3969, 3970, 3971
 3972, 3973, 3974, 3975, 3976, 3977, 3978, 3979, 3980, 3981, 3982, 3983, 3984, 3985, 3986, 3987
 3988, 3989, 3990, 3991, 3992, 3993, 3994, 3995, 3996, 3997, 3998, 3999, 4000, 4001, 4002, 4003
 4004, 4005, 4006, 4007, 4008, 4009, 4010, 4011, 4012, 4013, 4014, 4015, 4016, 4017, 4018, 4019
 4020, 4021, 4022, 4023, 4024, 4025, 4026, 4027, 4028, 4029, 4030, 4031, 4032, 4033, 4034, 4035
 4036, 4037, 4038, 4039, 4040, 4041, 4042, 4043, 4044, 4045, 4046, 4047, 4048, 4049, 4050, 4051
 4052, 4053, 4054, 4055, 4056, 4057, 4058, 4059, 4060, 4061, 4062, 4063, 4064, 4065, 4066, 4067
 4068, 4069, 4070, 4071, 4072, 4073, 4074, 4075, 4076, 4077, 4078, 4079, 4080, 4081, 4082, 4083
 4084, 4085, 4086, 4087, 4088, 4089, 4090, 4091, 4092, 4093, 4094, 4095, 4096, 4097, 4098, 4099
** ... 82 like lines cut
*Elset, elset=shell_segment-1__PickedSet2, generate
 3655,  5114,     1
*Nset, nset=shell_segment-1__G3
 3780, 3781, 3786, 3787, 3792, 3793, 3794, 3795, 3796, 3797, 3798, 3799, 3800, 3801, 3802, 3803
 3804, 3805, 3806, 3807, 3808, 3809, 3810, 3811, 3812, 3813, 3814, 3815, 3816, 3817, 3818, 3819
 3820, 3821, 3822, 3823, 3824, 3825, 3826, 3827, 3828, 3829, 3830, 3831, 3832, 3833, 3834, 3835
 3836, 3837, 3838, 3839, 3840, 3841, 3842, 3843, 3844, 3845, 3846, 3847, 3848, 3849, 3850, 3851
 3852, 3853, 3854, 3855, 3856, 3857, 3858, 3859, 3860, 3861, 3862, 3863, 4024, 4025, 4026, 4027
 4028, 4029, 4030, 4031, 4032, 4033, 4034, 4035, 4036, 4037, 4038, 4039, 4040, 4041, 4042, 4043
 4044, 4045, 4046, 4047, 4048, 4049, 4050, 4051, 4052, 4053, 4054, 4055, 4056, 4057, 4058, 4059
 4060, 4061, 4062, 4063, 4064, 4065, 4066, 4067, 4068, 4069, 4070, 4071, 4072, 4073, 4074, 4075
 4076, 4077, 4078, 4079, 4080, 4081, 4082, 4083, 4084, 4085, 4086, 4087, 4088, 4089, 4090, 4091
 4092, 4093, 4094, 4095, 4256, 4257, 4258, 4259, 4260, 4261, 4262, 4263, 4264, 4265, 4266, 4267
 4268, 4269, 4270, 4271, 4272, 4273, 4274, 4275, 4276, 4277, 4278, 4279, 4280, 4281, 4282, 4283
 4284, 4285, 4286, 4287, 4288, 4289, 4290, 4291, 4292, 4293, 4294, 4295, 4296, 4297, 4298, 4299
 4300, 4301, 4302, 4303, 4304, 4305, 4306, 4307, 4308, 4309, 4310, 4311, 4312, 4313, 5466, 5467
 5468, 5469, 5470, 5471, 5472, 5473, 5474, 5475, 5476, 5477, 5478, 5479, 5480, 5481, 5482, 5483
 5484, 5485, 5486, 5487, 5488, 5489, 5490, 5491, 5492, 5493, 5494, 5495, 5496, 5497, 5498, 5499
 5500, 5501, 5502, 5503, 5504, 5505, 5506, 5507, 5508, 5509, 5510, 5511, 5512, 5513, 5514, 5515
 5516, 5517, 5518, 5519, 5520, 5521, 5522, 5523, 5524, 5525, 5526, 5527, 5528, 5529, 5530, 5531
 5532, 5533, 5534, 5535, 5536, 5537, 5538, 5539, 5540, 5541, 5542, 5543, 5544, 5545, 5546, 5547
 5548, 5549, 5550, 5551, 5552, 5553, 5554, 5555, 5556, 5557, 5558, 5559, 5560, 5561, 5562, 5563
 5564, 5565, 5566, 5567, 5568, 5569, 5570, 5571, 5572, 5573, 5574, 5575, 5576, 5577, 5578, 5579
** ... 124 like lines cut
*Elset, elset=shell_segment-1__G3, generate
 5115,  7304,     1
*Nset, nset=shell_segment-1_shell_top_nodes
3781,3782,3785,3787,3788,3791,3864,3865,3866,3867,4020,4021,4022,4023,4096,4097
4098,4099,4252,4253,4254,4255,4256,4257,4258,4259,4260,4261,4262,4263,4264,4265
4266,4267,4268,4269,4270,4271,4272,4273,4274,4275,4276,4277,4278,4279,4280,4281
4282,4283,4284
*Elset, elset=shell_segment-1_shell_top_nodes
 3727, 3800, 3873, 3946, 4019, 4020, 4093, 4166, 4239, 4312, 4457, 4530, 4603, 4676, 4749, 4750
 4823, 4896, 4969, 5042, 5115, 5116, 5117, 5118, 5119, 5120, 5121, 5122, 5123, 5124, 5125, 5126
 5127, 5128, 5129, 5130, 5131, 5132, 5133, 5134, 5135, 5136, 5137, 5138, 5139, 5140, 5141, 5142
 5143, 5144
*Nset, nset=shell_segment-1_shell_bot_nodes
3780,3783,3784,3786,3789,3790,3940,3941,3942,3943,3944,3945,3946,3947,4172,4173
4174,4175,4176,4177,4178,4179,4285,4286,4287,4288,4289,4290,4291,4292,4293,4294
4295,4296,4297,4298,4299,4300,4301,4302,4303,4304,4305,4306,4307,4308,4309,4310
4311,4312,4313
*Elset, elset=shell_segment-1_shell_bot_nodes
 3655, 3728, 3801, 3874, 3947, 4092, 4165, 4238, 4311, 4384, 4385, 4458, 4531, 4604, 4677, 4822
 4895, 4968, 5041, 5114, 7275, 7276, 7277, 7278, 7279, 7280, 7281, 7282, 7283, 7284, 7285, 7286
 7287, 7288, 7289, 7290, 7291, 7292, 7293, 7294, 7295, 7296, 7297, 7298, 7299, 7300, 7301, 7302
 7303, 7304
** Section: flange_section
*Shell Section, elset=shell_segment-1__PickedSet2, material=steel_chabouche-flange
29.21, 5
** Section: web_section
*Shell Section, elset=shell_segment-1__G3, material=steel_chabouche-web
16.51, 5
*System
*Node
   7554,           0.,           0.,        5486.
*Node
   7555,           0.,           0.,           0.
*Nset, nset=Set-10
7554,
*Nset, nset=Set-11
7554,
*Nset, nset=Set-12
3776,
*Nset, nset=base_node
7555,
*Nset, nset=control_node
7554,
*Nset, nset=m_Set-10
3777,
*Nset, nset=m_Set-11
3775,
*Nset, nset=_PickedSet7
7554,
*Nset, nset=_PickedSet8
7555,
*Nset, nset=_PickedSet12
7555,
*Nset, nset=_PickedSet13
7554,
** Constraint: rigid_base
*Rigid Body, ref node=_PickedSet8, tie nset=top_segment_shell_bot_nodes
** Constraint: top_plate
*Rigid Body, ref node=_PickedSet7, tie nset=shell_segment-1_shell_top_nodes
*Amplitude, name=lateral_mm, definition=EQUALLY SPACED, fixed interval=1.
             0.,            1.72,            7.14,           10.76,           14.87,           15.99,           15.99,           13.64
           9.19,            4.99,            0.85,           -3.81,           -8.63,          -12.14,          -15.69,           -14.3
          -10.6,           -6.18,           -1.32,            3.77,            8.77,           13.17,           16.54,           12.57
           9.01,            5.13,            0.26,           -4.48,           -9.03,          -13.13,          -15.55,          -13.13
          -9.28,           -5.04,           -0.64,            3.48,            8.45,           12.91,            16.6,           14.52
          10.34,            6.78,            2.86,           -1.41,            -5.7,          -10.05,          -13.74,          -15.48
         -12.34,           -7.66,           -3.13,            1.05,            5.41,            9.85,           14.46,           15.56
          12.19,             8.2,            3.68,           -0.62,           -4.31,           -8.84,          -12.91,          -15.81
         -13.59,           -9.76,           -5.64,            -1.2,            3.23,            7.38,           11.05,           15.51
          14.98,            11.3,            6.94,            1.99,           -1.19,           -5.69,           -9.78,          -13.84
         -15.52,          -12.93,           -8.71,           -4.83,           -0.79,            2.69,            6.28,           10.35
          14.79,           14.98,           11.09,            7.35,            3.47,           -1.16,           -5.33,           -9.38
         -13.06,          -15.62,          -15.31,          -11.75,           -6.83,            -2.2,            1.99,            5.62
           9.19,           12.81,           17.35,           21.22,            21.3,           17.28,           13.38,            9.52
           5.75,             1.8,           -2.43,           -6.62,          -10.92,          -15.66,            -20.,          -20.87
         -17.92,           -14.5,          -10.38,           -7.11,            -3.4,            0.57,            5.11,            9.74
          14.63,           19.42,           21.17,           18.26,           13.93,           10.37,            6.82,            3.48
          -1.02,           -4.63,           -8.62,           -12.1,          -16.22,          -20.82,           -20.3,          -15.49
           -12.,           -7.66,           -3.97,            1.07,             4.9,            8.98,           13.02,           17.24
          20.56,           20.57,           16.52,           12.32,            8.49,            4.03,           -0.46,           -4.95
** ... 148 like lines cut
*Amplitude, name=lateral_pattern
             0.,              0.,          0.0078,          0.0037,          0.0156,              0.,          0.0234,         -0.0037
         0.0313,              0.,          0.0391,          0.0037,          0.0469,              0.,          0.0547,         -0.0037
         0.0625,              0.,          0.0703,           0.005,          0.0781,              0.,          0.0859,          -0.005
         0.0938,              0.,          0.1016,           0.005,          0.1094,              0.,          0.1172,          -0.005
          0.125,              0.,          0.1328,          0.0075,          0.1406,              0.,          0.1484,         -0.0075
         0.1563,              0.,          0.1641,          0.0075,          0.1719,              0.,          0.1797,         -0.0075
         0.1875,              0.,          0.1953,          0.0075,          0.2031,              0.,          0.2109,         -0.0075
         0.2188,              0.,          0.2266,          0.0075,          0.2344,              0.,          0.2422,         -0.0075
           0.25,              0.,          0.2578,            0.01,          0.2656,              0.,          0.2734,           -0.01
         0.2813,              0.,          0.2891,            0.01,          0.2969,              0.,          0.3047,           -0.01
         0.3125,              0.,          0.3203,            0.01,          0.3281,              0.,          0.3359,           -0.01
         0.3438,              0.,          0.3516,            0.01,          0.3594,              0.,          0.3672,           -0.01
          0.375,              0.,          0.3828,           0.015,          0.3906,              0.,          0.3984,          -0.015
         0.4063,              0.,          0.4141,           0.015,          0.4219,              0.,          0.4297,          -0.015
         0.4375,              0.,          0.4453,            0.02,          0.4531,              0.,          0.4609,           -0.02
         0.4688,              0.,          0.4766,            0.02,          0.4844,              0.,          0.4922,           -0.02
            0.5,              0.,          0.5078,            0.03,          0.5156,              0.,          0.5234,           -0.03
         0.5313,              0.,          0.5391,            0.03,          0.5469,              0.,          0.5547,           -0.03
         0.5625,              0.,          0.5703,            0.04,          0.5781,              0.,          0.5859,           -0.04
         0.5938,              0.,          0.6016,            0.04,          0.6094,              0.,          0.6172,           -0.04
** ... 13 like lines cut
** 
** MATERIALS
** 
*Material, name=steel_chabouche-flange
*Elastic
185000., 0.3
*Plastic, hardening=COMBINED, datatype=PARAMETERS, number backstresses=2
 358.9, 11608.2,   145.2,  1026.3,     4.7
*Cyclic Hardening, parameters
 358.9, 100.7,    8.
*Material, name=steel_chabouche-flange_auglag
*Elastic
185000., 0.3
*Plastic, hardening=COMBINED, datatype=PARAMETERS, number backstresses=2
 349.5, 3132.5, 21.431, 258.14, 1.3117
*Cyclic Hardening, parameters
 349.5, 114.47, 22.617
*Material, name=steel_chabouche-web
*Elastic
185000., 0.3
*Plastic, hardening=COMBINED, datatype=PARAMETERS, number backstresses=2
 438.1, 8716.1,  118.5, 1182.1,    5.2
*Cyclic Hardening, parameters
 438.1, 77.5,  9.3
** 
** BOUNDARY CONDITIONS
** 
** Name: bot_fix Type: Displacement/Rotation
*Boundary
_PickedSet12, 1, 1
_PickedSet12, 2, 2
_PickedSet12, 3, 3
_PickedSet12, 4, 4
_PickedSet12, 5, 5
_PickedSet12, 6, 6
** Name: top_fix Type: Displacement/Rotation
*Boundary
Set-10, 1, 1
Set-10, 4, 4
Set-10, 5, 5
Set-10, 6, 6
*IMPERFECTION, input=NIST_A-KC-Imp.txt
** ----------------------------------------------------------------
** 
** STEP: gravity_loading
** 
*Step, name=gravity_loading, nlgeom=YES, inc=10000
*Static
0.1, 1., 1e-35, 0.1
** 
** LOADS
** 
** Name: gravity_load   Type: Concentrated force
*Cload
_PickedSet13, 3, -1.744e+06
** Name: mid_torque   Type: Moment
*Cload
Set-12, 6, -1e+07
** 
** OUTPUT REQUESTS
** 
*Restart, write, frequency=0
** 
** FIELD OUTPUT: F-Output-1
** 
*Output, field, variable=PRESELECT, time interval=1.
** 
** HISTORY OUTPUT: H-Output-1
** 
*Output, history, variable=PRESELECT
*End Step
** ----------------------------------------------------------------
** 
** STEP: lateral_loading
** 
*Step, name=lateral_loading, nlgeom=YES, inc=10000
*Static
1., 1340., 1e-35, 1.
** 
** BOUNDARY CONDITIONS
** 
** Name: disp_control Type: Displacement/Rotation
*Boundary, amplitude=lateral_mm
Set-11, 2, 2, 1.
** 
** OUTPUT REQUESTS
** 
*Restart, write, frequency=0
** 
** FIELD OUTPUT: F-Output-1
** 
*Output, field, variable=PRESELECT, time interval=1.
** 
** HISTORY OUTPUT: H-Output-1
** 
*Output, history, variable=PRESELECT
*End Step
