*Heading
** Job name: Macro-EQN-Testing Model name: Macro-EQN
** Generated by: Abaqus/CAE 6.14-1
*Preprint, echo=NO, model=NO, history=NO, contact=NO
** ----------------------------------------------------------------
** 
** PART INSTANCE: Part-1-1
** 
*System
          0.,          0.,       1000., 6.12323399573677e-17,          0.,       1001.
          0.,          1.,       1000.
*Node
      1,           0.,           0.,           0.
      2,         250.,           0.,           0.
      3,         500.,           0.,           0.
      4,         750.,           0.,           0.
      5,        1000.,           0.,           0.
*Element, type=B31OS
1, 1, 2
2, 2, 3
3, 3, 4
4, 4, 5
*Nset, nset=Part-1-1_Set-3, generate
 1,  5,  1
*Elset, elset=Part-1-1_Set-3, generate
 1,  4,  1
*Nset, nset=Part-1-1_Set-4, generate
 1,  5,  1
*Elset, elset=Part-1-1_Set-4, generate
 1,  4,  1
*Nset, nset=Part-1-1_beam_node
 1,
** Section: Section-1  Profile: Profile-1
*Beam Section, elset=Part-1-1_Set-3, material=Material-1, temperature=GRADIENTS, section=I
55., 110., 100., 100., 10., 10., 10.
1.,0.,-6.12323e-17
** ----------------------------------------------------------------
** 
** PART INSTANCE: Part-2-1
** 
*System
*Node
      6,           0.,         -50.,        1000.
      7,           0.,         -50.,           0.
      8,          50.,         -50.,           0.
      9,          50.,         -50.,        1000.
     10,         -50.,         -50.,        1000.
     11,         -50.,         -50.,           0.
     12,           0.,          50.,        1000.
     13,           0.,          50.,           0.
     14,         -50.,          50.,        1000.
     15,         -50.,          50.,           0.
     16,          50.,          50.,           0.
     17,          50.,          50.,        1000.
     18,           0.,         -50.,         975.
     19,           0.,         -50.,         950.
     20,           0.,         -50.,         925.
     21,           0.,         -50.,         900.
     22,           0.,         -50.,         875.
     23,           0.,         -50.,         850.
     24,           0.,         -50.,         825.
     25,           0.,         -50.,         800.
** ... 513 like lines cut
*Element, type=S4R
 5,   6,  18, 266,  97
 6,  18,  19, 267, 266
 7,  19,  20, 268, 267
 8,  20,  21, 269, 268
 9,  21,  22, 270, 269
10,  22,  23, 271, 270
11,  23,  24, 272, 271
12,  24,  25, 273, 272
13,  25,  26, 274, 273
14,  26,  27, 275, 274
15,  27,  28, 276, 275
16,  28,  29, 277, 276
17,  29,  30, 278, 277
18,  30,  31, 279, 278
19,  31,  32, 280, 279
20,  32,  33, 281, 280
21,  33,  34, 282, 281
22,  34,  35, 283, 282
23,  35,  36, 284, 283
24,  36,  37, 285, 284
** ... 460 like lines cut
*Nset, nset=Part-2-1_Set-14, generate
   6,  538,    1
*Elset, elset=Part-2-1_Set-14, generate
   5,  484,    1
*Nset, nset=Part-2-1_interf_nodes_1
   6,   9,  10,  12,  14,  17,  97,  98, 139, 140, 141, 184, 265
** Section: Section-2
*Shell Section, elset=Part-2-1_Set-14, material=Material-1
10., 5
** ----------------------------------------------------------------
** 
** PART INSTANCE: full_beam-1
** 
*System
        500.,          0.,          0.,        501.,          0.,          0.
*Node
    539,           0.,         -50.,        2000.
    540,           0.,         -50.,           0.
    541,          50.,         -50.,           0.
    542,          50.,         -50.,        2000.
    543,         -50.,         -50.,        2000.
    544,         -50.,         -50.,           0.
    545,           0.,          50.,        2000.
    546,           0.,          50.,           0.
    547,         -50.,          50.,        2000.
    548,         -50.,          50.,           0.
    549,          50.,          50.,           0.
    550,          50.,          50.,        2000.
    551,           0.,         -50.,        1975.
    552,           0.,         -50.,        1950.
    553,           0.,         -50.,        1925.
    554,           0.,         -50.,        1900.
    555,           0.,         -50.,        1875.
    556,           0.,         -50.,        1850.
    557,           0.,         -50.,        1825.
    558,           0.,         -50.,        1800.
** ... 1033 like lines cut
*Element, type=S4R
485,  539,  551, 1039,  710
486,  551,  552, 1040, 1039
487,  552,  553, 1041, 1040
488,  553,  554, 1042, 1041
489,  554,  555, 1043, 1042
490,  555,  556, 1044, 1043
491,  556,  557, 1045, 1044
492,  557,  558, 1046, 1045
493,  558,  559, 1047, 1046
494,  559,  560, 1048, 1047
495,  560,  561, 1049, 1048
496,  561,  562, 1050, 1049
497,  562,  563, 1051, 1050
498,  563,  564, 1052, 1051
499,  564,  565, 1053, 1052
500,  565,  566, 1054, 1053
501,  566,  567, 1055, 1054
502,  567,  568, 1056, 1055
503,  568,  569, 1057, 1056
504,  569,  570, 1058, 1057
** ... 940 like lines cut
*Nset, nset=full_beam-1_Set-14, generate
  539,  1591,     1
*Elset, elset=full_beam-1_Set-14, generate
 485, 1444,    1
** Section: Section-2
*Shell Section, elset=full_beam-1_Set-14, material=Material-1
10., 5
** ----------------------------------------------------------------
** 
** PART INSTANCE: Part-2-1-lin-2-1
** 
*System
       1000.,          0.,          0.,       1001.,          0.,          0.
*Node
   1592,           0.,         -50.,        1000.
   1593,           0.,         -50.,           0.
   1594,          50.,         -50.,           0.
   1595,          50.,         -50.,        1000.
   1596,         -50.,         -50.,        1000.
   1597,         -50.,         -50.,           0.
   1598,           0.,          50.,        1000.
   1599,           0.,          50.,           0.
   1600,         -50.,          50.,        1000.
   1601,         -50.,          50.,           0.
   1602,          50.,          50.,           0.
   1603,          50.,          50.,        1000.
   1604,           0.,         -50.,         975.
   1605,           0.,         -50.,         950.
   1606,           0.,         -50.,         925.
   1607,           0.,         -50.,         900.
   1608,           0.,         -50.,         875.
   1609,           0.,         -50.,         850.
   1610,           0.,         -50.,         825.
   1611,           0.,         -50.,         800.
** ... 513 like lines cut
*Element, type=S4R
1445, 1592, 1604, 1852, 1683
1446, 1604, 1605, 1853, 1852
1447, 1605, 1606, 1854, 1853
1448, 1606, 1607, 1855, 1854
1449, 1607, 1608, 1856, 1855
1450, 1608, 1609, 1857, 1856
1451, 1609, 1610, 1858, 1857
1452, 1610, 1611, 1859, 1858
1453, 1611, 1612, 1860, 1859
1454, 1612, 1613, 1861, 1860
1455, 1613, 1614, 1862, 1861
1456, 1614, 1615, 1863, 1862
1457, 1615, 1616, 1864, 1863
1458, 1616, 1617, 1865, 1864
1459, 1617, 1618, 1866, 1865
1460, 1618, 1619, 1867, 1866
1461, 1619, 1620, 1868, 1867
1462, 1620, 1621, 1869, 1868
1463, 1621, 1622, 1870, 1869
1464, 1622, 1623, 1871, 1870
** ... 460 like lines cut
*Nset, nset=Part-2-1-lin-2-1_Set-14, generate
1592, 2124,    1
*Elset, elset=Part-2-1-lin-2-1_Set-14, generate
1445, 1924,    1
*Nset, nset=Part-2-1-lin-2-1_interf_nodes_1
1592,1595,1596,1598,1600,1603,1683,1684,1725,1726,1727,1770,1851
** Section: Section-2
*Shell Section, elset=Part-2-1-lin-2-1_Set-14, material=Material-1
10., 5
** ----------------------------------------------------------------
** 
** PART INSTANCE: Part-1-1-lin-2-1
** 
*System
       1000.,          0.,       1000.,       1000.,          0.,       1001.
       1000.,          1.,       1000.
*Node
   2125,           0.,           0.,           0.
   2126,         250.,           0.,           0.
   2127,         500.,           0.,           0.
   2128,         750.,           0.,           0.
   2129,        1000.,           0.,           0.
*Element, type=B31OS
1925, 2125, 2126
1926, 2126, 2127
1927, 2127, 2128
1928, 2128, 2129
*Nset, nset=Part-1-1-lin-2-1_Set-3, generate
2125, 2129,  1
*Elset, elset=Part-1-1-lin-2-1_Set-3, generate
1925, 1928,  1
*Nset, nset=Part-1-1-lin-2-1_Set-4, generate
2125, 2129,  1
*Elset, elset=Part-1-1-lin-2-1_Set-4, generate
1925, 1928,  1
*Nset, nset=Part-1-1-lin-2-1_beam_node
2125,
** Section: Section-1  Profile: Profile-1
*Beam Section, elset=Part-1-1-lin-2-1_Set-3, material=Material-1, temperature=GRADIENTS, section=I
55., 110., 100., 100., 10., 10., 10.
1.,0.,-6.12323e-17
*System
*Node
   2130,           0.,           0.,           0.
*Node
   2131,         500.,           0.,           0.
*Node
   2132,         500.,           0.,        2000.
*Node
   2133,        1000.,           0.,           0.
*Nset, nset=Set-1
 5,
*Nset, nset=Set-4
2130,
*Nset, nset=Set-5
 5,
*Nset, nset=Set-6
 5,
*Nset, nset=Set-7
 5,
*Nset, nset=Set-8
 5,
*Nset, nset=Set-14
2130,2131
*Nset, nset=load_nodes
 5,
*Nset, nset=load_nodes
2132,
*Nset, nset=load_nodes
2129,
*Nset, nset=m_Set-17
2125,
*Nset, nset=s_Set-17
1592,1595,1596,1598,1600,1603,1683,1684,1725,1726,1727,1770,1851
*Elset, elset=s_Set-17
1445,1485,1564,1604,1605,1606,1607,1608,1804,1844,1845,1885
*Nset, nset=t_Set-2
   7,   8,  11,  13,  15,  16,  57, 138, 142, 143, 144, 224, 225
*Elset, elset=t_Set-2
  44,  84,  85, 125, 321, 322, 323, 324, 325, 365, 444, 484
*Nset, nset=t_Set-9
 540, 541, 544, 546, 548, 549, 630, 791, 795, 796, 797, 957, 958
*Elset, elset=t_Set-9
 564, 644, 645, 725,1121,1122,1123,1124,1125,1205,1364,1444
*Nset, nset=t_Set-11
 539, 542, 543, 545, 547, 550, 710, 711, 792, 793, 794, 877,1038
*Elset, elset=t_Set-11
 485, 565, 724, 804, 805, 806, 807, 808,1204,1284,1285,1365
*Nset, nset=t_Set-15
1593,1594,1597,1599,1601,1602,1643,1724,1728,1729,1730,1810,1811
*Elset, elset=t_Set-15
1484,1524,1525,1565,1761,1762,1763,1764,1765,1805,1884,1924
*Nset, nset=_PickedSet9
2130,
*Nset, nset=_PickedSet26
2131,
*Nset, nset=_PickedSet29
2132,
*Nset, nset=_PickedSet39
2133,
*Surface, type=NODE, name=s_Set-17_CNS_
s_Set-17, 1.
** Constraint: Constraint-1
*Rigid Body, ref node=_PickedSet9, tie nset=t_Set-2
** Constraint: Constraint-2
*Rigid Body, ref node=_PickedSet26, tie nset=t_Set-9
** Constraint: Constraint-3
*Rigid Body, ref node=_PickedSet29, tie nset=t_Set-11
** Constraint: Constraint-4
*Rigid Body, ref node=_PickedSet39, tie nset=t_Set-15
** Constraint: Constraint-5
*Coupling, constraint name=Constraint-5, ref node=m_Set-17, surface=s_Set-17_CNS_
*Kinematic
1, 1
2, 2
3, 3
** 
** MATERIALS
** 
*Material, name=Material-1
*Elastic
200000., 0.3
** 
** BOUNDARY CONDITIONS
** 
** Name: BC-1 Type: Displacement/Rotation
*Boundary
Set-14, 1, 1
Set-14, 2, 2
Set-14, 3, 3
Set-14, 4, 4
Set-14, 5, 5
Set-14, 6, 6
** ----------------------------------------------------------------
** 
** STEP: Step-1
** 
*Step, name=Step-1, nlgeom=YES, inc=1000
*Static
0.1, 1., 1e-05, 0.1
** 
** LOADS
** 
** Name: fx   Type: Concentrated force
*Cload
load_nodes, 1, 10000.
load_nodes, 2, 0.
load_nodes, 3, 0.
** 
** OUTPUT REQUESTS
** 
*Restart, write, frequency=0
** 
** FIELD OUTPUT: F-Output-1
** 
*Output, field, variable=PRESELECT
** 
** HISTORY OUTPUT: H-Output-1
** 
*Output, history, variable=PRESELECT
*End Step
