*Heading
** Job name: C5-WIKC-TopRot Model name: C5-FS-TopRot-WIKC
** Generated by: Abaqus/CAE 6.14-1
*Preprint, echo=NO, model=NO, history=NO, contact=NO
** ----------------------------------------------------------------
** 
** PART INSTANCE: top_segment
** 
*Node
      1,           0.,  -299.649994,           0.
      2,           0.,  -299.649994,         800.
      3,        -164.,  -299.649994,         800.
      4,        -164.,  -299.649994,           0.
      5,         164.,  -299.649994,           0.
      6,         164.,  -299.649994,         800.
      7,           0.,   299.649994,           0.
      8,           0.,   299.649994,         800.
      9,        -164.,   299.649994,         800.
     10,        -164.,   299.649994,           0.
     11,         164.,   299.649994,           0.
     12,         164.,   299.649994,         800.
     13,           0.,  -299.649994,          25.
     14,           0.,  -299.649994,          50.
     15,           0.,  -299.649994,          75.
     16,           0.,  -299.649994,         100.
     17,           0.,  -299.649994,         125.
     18,           0.,  -299.649994,         150.
     19,           0.,  -299.649994,         175.
     20,           0.,  -299.649994,         200.
** ... 1729 like lines cut
*Element, type=S4R
  1,   1,  13, 293,  86
  2,  13,  14, 294, 293
  3,  14,  15, 295, 294
  4,  15,  16, 296, 295
  5,  16,  17, 297, 296
  6,  17,  18, 298, 297
  7,  18,  19, 299, 298
  8,  19,  20, 300, 299
  9,  20,  21, 301, 300
 10,  21,  22, 302, 301
 11,  22,  23, 303, 302
 12,  23,  24, 304, 303
 13,  24,  25, 305, 304
 14,  25,  26, 306, 305
 15,  26,  27, 307, 306
 16,  27,  28, 308, 307
 17,  28,  29, 309, 308
 18,  29,  30, 310, 309
 19,  30,  31, 311, 310
 20,  31,  32, 312, 311
** ... 1644 like lines cut
*Nset, nset=top_segment__PickedSet2
    1,    2,    3,    4,    5,    6,    7,    8,    9,   10,   11,   12,   13,   14,   15,   16
   17,   18,   19,   20,   21,   22,   23,   24,   25,   26,   27,   28,   29,   30,   31,   32
   33,   34,   35,   36,   37,   38,   39,   40,   41,   42,   43,   44,   45,   46,   47,   48
   49,   50,   51,   52,   53,   54,   55,   56,   57,   58,   59,   60,   61,   62,   63,   64
   65,   66,   67,   68,   69,   70,   71,   72,   73,   74,   75,   76,   77,   78,   79,   80
   81,   82,   83,   84,   85,   86,   87,   88,   89,   90,   91,   92,   93,   94,   95,   96
   97,   98,   99,  100,  101,  102,  103,  104,  105,  106,  107,  108,  109,  110,  111,  112
  113,  114,  115,  116,  117,  118,  119,  120,  121,  122,  123,  124,  125,  126,  127,  128
  129,  130,  131,  132,  133,  134,  135,  136,  137,  138,  139,  140,  141,  142,  143,  144
  145,  146,  147,  148,  149,  150,  151,  152,  153,  154,  155,  156,  157,  158,  159,  160
  161,  162,  163,  164,  165,  166,  167,  168,  169,  170,  171,  172,  173,  174,  175,  176
  177,  178,  179,  180,  181,  182,  183,  184,  185,  186,  187,  188,  189,  190,  191,  192
  193,  194,  195,  196,  197,  198,  199,  200,  201,  202,  203,  204,  205,  206,  207,  208
  209,  210,  211,  212,  213,  214,  215,  216,  217,  218,  219,  220,  221,  222,  223,  224
  225,  226,  227,  228,  229,  230,  231,  232,  233,  234,  235,  236,  237,  238,  239,  240
  241,  242,  243,  244,  245,  246,  293,  294,  295,  296,  297,  298,  299,  300,  301,  302
  303,  304,  305,  306,  307,  308,  309,  310,  311,  312,  313,  314,  315,  316,  317,  318
  319,  320,  321,  322,  323,  324,  325,  326,  327,  328,  329,  330,  331,  332,  333,  334
  335,  336,  337,  338,  339,  340,  341,  342,  343,  344,  345,  346,  347,  348,  349,  350
  351,  352,  353,  354,  355,  356,  357,  358,  359,  360,  361,  362,  363,  364,  365,  366
** ... 42 like lines cut
*Elset, elset=top_segment__PickedSet2, generate
   1,  896,    1
*Nset, nset=top_segment__G3
    1,    2,    7,    8,   13,   14,   15,   16,   17,   18,   19,   20,   21,   22,   23,   24
   25,   26,   27,   28,   29,   30,   31,   32,   33,   34,   35,   36,   37,   38,   39,   40
   41,   42,   43,  130,  131,  132,  133,  134,  135,  136,  137,  138,  139,  140,  141,  142
  143,  144,  145,  146,  147,  148,  149,  150,  151,  152,  153,  154,  155,  156,  157,  158
  159,  160,  247,  248,  249,  250,  251,  252,  253,  254,  255,  256,  257,  258,  259,  260
  261,  262,  263,  264,  265,  266,  267,  268,  269,  270,  271,  272,  273,  274,  275,  276
  277,  278,  279,  280,  281,  282,  283,  284,  285,  286,  287,  288,  289,  290,  291,  292
 1037, 1038, 1039, 1040, 1041, 1042, 1043, 1044, 1045, 1046, 1047, 1048, 1049, 1050, 1051, 1052
 1053, 1054, 1055, 1056, 1057, 1058, 1059, 1060, 1061, 1062, 1063, 1064, 1065, 1066, 1067, 1068
 1069, 1070, 1071, 1072, 1073, 1074, 1075, 1076, 1077, 1078, 1079, 1080, 1081, 1082, 1083, 1084
 1085, 1086, 1087, 1088, 1089, 1090, 1091, 1092, 1093, 1094, 1095, 1096, 1097, 1098, 1099, 1100
 1101, 1102, 1103, 1104, 1105, 1106, 1107, 1108, 1109, 1110, 1111, 1112, 1113, 1114, 1115, 1116
 1117, 1118, 1119, 1120, 1121, 1122, 1123, 1124, 1125, 1126, 1127, 1128, 1129, 1130, 1131, 1132
 1133, 1134, 1135, 1136, 1137, 1138, 1139, 1140, 1141, 1142, 1143, 1144, 1145, 1146, 1147, 1148
 1149, 1150, 1151, 1152, 1153, 1154, 1155, 1156, 1157, 1158, 1159, 1160, 1161, 1162, 1163, 1164
 1165, 1166, 1167, 1168, 1169, 1170, 1171, 1172, 1173, 1174, 1175, 1176, 1177, 1178, 1179, 1180
 1181, 1182, 1183, 1184, 1185, 1186, 1187, 1188, 1189, 1190, 1191, 1192, 1193, 1194, 1195, 1196
 1197, 1198, 1199, 1200, 1201, 1202, 1203, 1204, 1205, 1206, 1207, 1208, 1209, 1210, 1211, 1212
 1213, 1214, 1215, 1216, 1217, 1218, 1219, 1220, 1221, 1222, 1223, 1224, 1225, 1226, 1227, 1228
 1229, 1230, 1231, 1232, 1233, 1234, 1235, 1236, 1237, 1238, 1239, 1240, 1241, 1242, 1243, 1244
** ... 32 like lines cut
*Elset, elset=top_segment__G3, generate
  897,  1664,     1
*Nset, nset=top_segment_shell_top_nodes
   2,   3,   6,   8,   9,  12,  44,  45,  46,  47,  48,  49, 124, 125, 126, 127
 128, 129, 161, 162, 163, 164, 165, 166, 241, 242, 243, 244, 245, 246, 247, 248
 249, 250, 251, 252, 253, 254, 255, 256, 257, 258, 259, 260, 261, 262, 263, 264
 265, 266, 267, 268, 269
*Elset, elset=top_segment_shell_top_nodes
  32,  64,  96, 128, 160, 192, 224, 225, 257, 289, 321, 353, 385, 417, 480, 512
 544, 576, 608, 640, 672, 673, 705, 737, 769, 801, 833, 865, 897, 898, 899, 900
 901, 902, 903, 904, 905, 906, 907, 908, 909, 910, 911, 912, 913, 914, 915, 916
 917, 918, 919, 920
*Nset, nset=top_segment_shell_bot_nodes
   1,   4,   5,   7,  10,  11,  81,  82,  83,  84,  85,  86,  87,  88,  89,  90
  91,  92, 198, 199, 200, 201, 202, 203, 204, 205, 206, 207, 208, 209, 270, 271
 272, 273, 274, 275, 276, 277, 278, 279, 280, 281, 282, 283, 284, 285, 286, 287
 288, 289, 290, 291, 292
*Elset, elset=top_segment_shell_bot_nodes
    1,   33,   65,   97,  129,  161,  193,  256,  288,  320,  352,  384,  416,  448,  449,  481
  513,  545,  577,  609,  641,  704,  736,  768,  800,  832,  864,  896, 1641, 1642, 1643, 1644
 1645, 1646, 1647, 1648, 1649, 1650, 1651, 1652, 1653, 1654, 1655, 1656, 1657, 1658, 1659, 1660
 1661, 1662, 1663, 1664
** Section: flange_section
*Shell Section, elset=top_segment__PickedSet2, material=steel_chabouche-flange-orig, controls=EC-1
27.1, 5
** Section: web_section
*Shell Section, elset=top_segment__G3, material=steel_chabouche-web-orig, controls=EC-1
17.6, 5
** ----------------------------------------------------------------
** 
** PART INSTANCE: beam_segment-1
** 
*System
          0.,          0.,        800., 6.12323399573677e-17,          0.,        801.
          0.,          1.,        800.
*Node
   1750,           0.,           0.,           0.
   1751,        1150.,           0.,           0.
   1752,        2300.,           0.,           0.
   1753,         575.,           0.,           0.
   1754,        1725.,           0.,           0.
*Element, type=B31OS
1665, 1750, 1753
1666, 1753, 1751
1667, 1751, 1754
1668, 1754, 1752
*Nset, nset=beam_segment-1_Set-1, generate
1750, 1754,  1
*Elset, elset=beam_segment-1_Set-1, generate
1665, 1668,  1
*Nset, nset=beam_segment-1_Set-2, generate
1750, 1754,  1
*Elset, elset=beam_segment-1_Set-2, generate
1665, 1668,  1
*Nset, nset=beam_segment-1_beam_bot_node
1750,
*Nset, nset=beam_segment-1_beam_top_node
1752,
** Section: beam_section  Profile: C5_sec
*Beam Section, elset=beam_segment-1_Set-1, material=steel_chabouche-flange-orig, temperature=GRADIENTS, section=I
313.2, 626.4, 328., 328., 27.1, 27.1, 17.6
1.,0.,-6.12323e-17
** ----------------------------------------------------------------
** 
** PART INSTANCE: shell_segment-1
** 
*System
          0.,          0.,       3100.,          1.,          0.,       3100.
*Node
   1755,           0.,  -299.649994,           0.
   1756,           0.,  -299.649994,         800.
   1757,        -164.,  -299.649994,         800.
   1758,        -164.,  -299.649994,           0.
   1759,         164.,  -299.649994,           0.
   1760,         164.,  -299.649994,         800.
   1761,           0.,   299.649994,           0.
   1762,           0.,   299.649994,         800.
   1763,        -164.,   299.649994,         800.
   1764,        -164.,   299.649994,           0.
   1765,         164.,   299.649994,           0.
   1766,         164.,   299.649994,         800.
   1767,           0.,  -299.649994,          25.
   1768,           0.,  -299.649994,          50.
   1769,           0.,  -299.649994,          75.
   1770,           0.,  -299.649994,         100.
   1771,           0.,  -299.649994,         125.
   1772,           0.,  -299.649994,         150.
   1773,           0.,  -299.649994,         175.
   1774,           0.,  -299.649994,         200.
** ... 1729 like lines cut
*Element, type=S4R
1669, 1755, 1767, 2047, 1840
1670, 1767, 1768, 2048, 2047
1671, 1768, 1769, 2049, 2048
1672, 1769, 1770, 2050, 2049
1673, 1770, 1771, 2051, 2050
1674, 1771, 1772, 2052, 2051
1675, 1772, 1773, 2053, 2052
1676, 1773, 1774, 2054, 2053
1677, 1774, 1775, 2055, 2054
1678, 1775, 1776, 2056, 2055
1679, 1776, 1777, 2057, 2056
1680, 1777, 1778, 2058, 2057
1681, 1778, 1779, 2059, 2058
1682, 1779, 1780, 2060, 2059
1683, 1780, 1781, 2061, 2060
1684, 1781, 1782, 2062, 2061
1685, 1782, 1783, 2063, 2062
1686, 1783, 1784, 2064, 2063
1687, 1784, 1785, 2065, 2064
1688, 1785, 1786, 2066, 2065
** ... 1644 like lines cut
*Nset, nset=shell_segment-1__PickedSet2
 1755, 1756, 1757, 1758, 1759, 1760, 1761, 1762, 1763, 1764, 1765, 1766, 1767, 1768, 1769, 1770
 1771, 1772, 1773, 1774, 1775, 1776, 1777, 1778, 1779, 1780, 1781, 1782, 1783, 1784, 1785, 1786
 1787, 1788, 1789, 1790, 1791, 1792, 1793, 1794, 1795, 1796, 1797, 1798, 1799, 1800, 1801, 1802
 1803, 1804, 1805, 1806, 1807, 1808, 1809, 1810, 1811, 1812, 1813, 1814, 1815, 1816, 1817, 1818
 1819, 1820, 1821, 1822, 1823, 1824, 1825, 1826, 1827, 1828, 1829, 1830, 1831, 1832, 1833, 1834
 1835, 1836, 1837, 1838, 1839, 1840, 1841, 1842, 1843, 1844, 1845, 1846, 1847, 1848, 1849, 1850
 1851, 1852, 1853, 1854, 1855, 1856, 1857, 1858, 1859, 1860, 1861, 1862, 1863, 1864, 1865, 1866
 1867, 1868, 1869, 1870, 1871, 1872, 1873, 1874, 1875, 1876, 1877, 1878, 1879, 1880, 1881, 1882
 1883, 1884, 1885, 1886, 1887, 1888, 1889, 1890, 1891, 1892, 1893, 1894, 1895, 1896, 1897, 1898
 1899, 1900, 1901, 1902, 1903, 1904, 1905, 1906, 1907, 1908, 1909, 1910, 1911, 1912, 1913, 1914
 1915, 1916, 1917, 1918, 1919, 1920, 1921, 1922, 1923, 1924, 1925, 1926, 1927, 1928, 1929, 1930
 1931, 1932, 1933, 1934, 1935, 1936, 1937, 1938, 1939, 1940, 1941, 1942, 1943, 1944, 1945, 1946
 1947, 1948, 1949, 1950, 1951, 1952, 1953, 1954, 1955, 1956, 1957, 1958, 1959, 1960, 1961, 1962
 1963, 1964, 1965, 1966, 1967, 1968, 1969, 1970, 1971, 1972, 1973, 1974, 1975, 1976, 1977, 1978
 1979, 1980, 1981, 1982, 1983, 1984, 1985, 1986, 1987, 1988, 1989, 1990, 1991, 1992, 1993, 1994
 1995, 1996, 1997, 1998, 1999, 2000, 2047, 2048, 2049, 2050, 2051, 2052, 2053, 2054, 2055, 2056
 2057, 2058, 2059, 2060, 2061, 2062, 2063, 2064, 2065, 2066, 2067, 2068, 2069, 2070, 2071, 2072
 2073, 2074, 2075, 2076, 2077, 2078, 2079, 2080, 2081, 2082, 2083, 2084, 2085, 2086, 2087, 2088
 2089, 2090, 2091, 2092, 2093, 2094, 2095, 2096, 2097, 2098, 2099, 2100, 2101, 2102, 2103, 2104
 2105, 2106, 2107, 2108, 2109, 2110, 2111, 2112, 2113, 2114, 2115, 2116, 2117, 2118, 2119, 2120
** ... 42 like lines cut
*Elset, elset=shell_segment-1__PickedSet2, generate
1669, 2564,    1
*Nset, nset=shell_segment-1__G3
 1755, 1756, 1761, 1762, 1767, 1768, 1769, 1770, 1771, 1772, 1773, 1774, 1775, 1776, 1777, 1778
 1779, 1780, 1781, 1782, 1783, 1784, 1785, 1786, 1787, 1788, 1789, 1790, 1791, 1792, 1793, 1794
 1795, 1796, 1797, 1884, 1885, 1886, 1887, 1888, 1889, 1890, 1891, 1892, 1893, 1894, 1895, 1896
 1897, 1898, 1899, 1900, 1901, 1902, 1903, 1904, 1905, 1906, 1907, 1908, 1909, 1910, 1911, 1912
 1913, 1914, 2001, 2002, 2003, 2004, 2005, 2006, 2007, 2008, 2009, 2010, 2011, 2012, 2013, 2014
 2015, 2016, 2017, 2018, 2019, 2020, 2021, 2022, 2023, 2024, 2025, 2026, 2027, 2028, 2029, 2030
 2031, 2032, 2033, 2034, 2035, 2036, 2037, 2038, 2039, 2040, 2041, 2042, 2043, 2044, 2045, 2046
 2791, 2792, 2793, 2794, 2795, 2796, 2797, 2798, 2799, 2800, 2801, 2802, 2803, 2804, 2805, 2806
 2807, 2808, 2809, 2810, 2811, 2812, 2813, 2814, 2815, 2816, 2817, 2818, 2819, 2820, 2821, 2822
 2823, 2824, 2825, 2826, 2827, 2828, 2829, 2830, 2831, 2832, 2833, 2834, 2835, 2836, 2837, 2838
 2839, 2840, 2841, 2842, 2843, 2844, 2845, 2846, 2847, 2848, 2849, 2850, 2851, 2852, 2853, 2854
 2855, 2856, 2857, 2858, 2859, 2860, 2861, 2862, 2863, 2864, 2865, 2866, 2867, 2868, 2869, 2870
 2871, 2872, 2873, 2874, 2875, 2876, 2877, 2878, 2879, 2880, 2881, 2882, 2883, 2884, 2885, 2886
 2887, 2888, 2889, 2890, 2891, 2892, 2893, 2894, 2895, 2896, 2897, 2898, 2899, 2900, 2901, 2902
 2903, 2904, 2905, 2906, 2907, 2908, 2909, 2910, 2911, 2912, 2913, 2914, 2915, 2916, 2917, 2918
 2919, 2920, 2921, 2922, 2923, 2924, 2925, 2926, 2927, 2928, 2929, 2930, 2931, 2932, 2933, 2934
 2935, 2936, 2937, 2938, 2939, 2940, 2941, 2942, 2943, 2944, 2945, 2946, 2947, 2948, 2949, 2950
 2951, 2952, 2953, 2954, 2955, 2956, 2957, 2958, 2959, 2960, 2961, 2962, 2963, 2964, 2965, 2966
 2967, 2968, 2969, 2970, 2971, 2972, 2973, 2974, 2975, 2976, 2977, 2978, 2979, 2980, 2981, 2982
 2983, 2984, 2985, 2986, 2987, 2988, 2989, 2990, 2991, 2992, 2993, 2994, 2995, 2996, 2997, 2998
** ... 32 like lines cut
*Elset, elset=shell_segment-1__G3, generate
 2565,  3332,     1
*Nset, nset=shell_segment-1_shell_top_nodes
1756,1757,1760,1762,1763,1766,1798,1799,1800,1801,1802,1803,1878,1879,1880,1881
1882,1883,1915,1916,1917,1918,1919,1920,1995,1996,1997,1998,1999,2000,2001,2002
2003,2004,2005,2006,2007,2008,2009,2010,2011,2012,2013,2014,2015,2016,2017,2018
2019,2020,2021,2022,2023
*Elset, elset=shell_segment-1_shell_top_nodes
1700,1732,1764,1796,1828,1860,1892,1893,1925,1957,1989,2021,2053,2085,2148,2180
2212,2244,2276,2308,2340,2341,2373,2405,2437,2469,2501,2533,2565,2566,2567,2568
2569,2570,2571,2572,2573,2574,2575,2576,2577,2578,2579,2580,2581,2582,2583,2584
2585,2586,2587,2588
*Nset, nset=shell_segment-1_shell_bot_nodes
1755,1758,1759,1761,1764,1765,1835,1836,1837,1838,1839,1840,1841,1842,1843,1844
1845,1846,1952,1953,1954,1955,1956,1957,1958,1959,1960,1961,1962,1963,2024,2025
2026,2027,2028,2029,2030,2031,2032,2033,2034,2035,2036,2037,2038,2039,2040,2041
2042,2043,2044,2045,2046
*Elset, elset=shell_segment-1_shell_bot_nodes
 1669, 1701, 1733, 1765, 1797, 1829, 1861, 1924, 1956, 1988, 2020, 2052, 2084, 2116, 2117, 2149
 2181, 2213, 2245, 2277, 2309, 2372, 2404, 2436, 2468, 2500, 2532, 2564, 3309, 3310, 3311, 3312
 3313, 3314, 3315, 3316, 3317, 3318, 3319, 3320, 3321, 3322, 3323, 3324, 3325, 3326, 3327, 3328
 3329, 3330, 3331, 3332
** Section: flange_section
*Shell Section, elset=shell_segment-1__PickedSet2, material=steel_chabouche-flange-orig, controls=EC-1
27.1, 5
** Section: web_section
*Shell Section, elset=shell_segment-1__G3, material=steel_chabouche-web-orig, controls=EC-1
17.6, 5
*System
*Node
   3504,           0.,           0.,        3900.
*Node
   3505,           0.,           0.,           0.
*Nset, nset=Set-10
3504,
*Nset, nset=Set-11
3504,
*Nset, nset=Set-12
3504,
*Nset, nset=Set-13
3505,
*Nset, nset=Set-17
3504,
*Nset, nset=Set-18
3504,
*Nset, nset=Set-19
3504,
*Nset, nset=Set-20
1751,
*Nset, nset=base_node
3505,
*Nset, nset=control_node
3504,
*Nset, nset=_PickedSet7
3504,
*Nset, nset=_PickedSet8
3505,
*Nset, nset=_PickedSet12
3505,
*Nset, nset=_PickedSet13
3504,
*Elset, elset=_s_Surf-1_SNEG, generate
    1,  1664,     1
*Surface, type=ELEMENT, name=s_Surf-1
_s_Surf-1_SNEG, SNEG
*Surface, type=NODE, name=top_segment_shell_top_nodes_CNS_
top_segment_shell_top_nodes, 1.
*Surface, type=NODE, name=shell_segment-1_shell_bot_nodes_CNS_
shell_segment-1_shell_bot_nodes, 1.
** Constraint: bot_couple
*Coupling, constraint name=bot_couple, ref node=beam_segment-1_beam_bot_node, surface=top_segment_shell_top_nodes_CNS_
*Kinematic
1, 1
2, 2
3, 3
** Constraint: rigid_base
*Rigid Body, ref node=_PickedSet8, tie nset=top_segment_shell_bot_nodes
** Constraint: top_couple
*Coupling, constraint name=top_couple, ref node=beam_segment-1_beam_top_node, surface=shell_segment-1_shell_bot_nodes_CNS_
*Kinematic
1, 1
2, 2
3, 3
** Constraint: top_plate
*Rigid Body, ref node=_PickedSet7, tie nset=shell_segment-1_shell_top_nodes
*Element, type=MASS, elset=Set-12_Inertia-1_
3333, 3504
*Mass, elset=Set-12_Inertia-1_, type=ANISOTROPIC, alpha=0.168
0., 1982., 0.
** 
** ELEMENT CONTROLS
** 
*Section Controls, name=EC-1, hourglass=ENHANCED
1., 1., 1.
*Amplitude, name=C5_protocol, definition=EQUALLY SPACED, fixed interval=1.
             0.,             1.5,            -1.5,             1.5,            -1.5,              5.,              1.,              4.
             1.,              5.,              1.,              4.,              1.,              4.,              1.,              4.
             1.,             8.2,             4.1,             7.1,             4.1,             8.2,             4.1,             7.2
            4.1,             7.2,             4.1,             7.2,             4.1,             10.,              0.,            -10.
             0.
*Amplitude, name=c5_rot_protocol
             0.,              0.,              1.,            -1.4,              2.,             1.4,              3.,            -1.4
             4.,             1.4,              5.,            -2.9,              6.,            0.61,              7.,             -2.
             8.,            0.61,              9.,            -2.9,             10.,            0.61,             11.,             -2.
            12.,            0.61,             13.,             -2.,             14.,            0.61,             15.,             -2.
            16.,            0.61,             17.,            -3.2,             18.,             0.4,             19.,            -2.4
            20.,             0.4,             21.,            -3.2,             22.,             0.4,             23.,            -2.4
            24.,             0.4,             25.,            -2.4,             26.,             0.4,             27.,            -2.4
            28.,             0.4,             29.,            -1.9,             30.,             2.2,             32.,              0.
** 
** MATERIALS
** 
*Material, name=UVC_flange
*Density
 8e-12,
*Depvar
     10,
*User Material, constants=11
200000.,    0.3, 373.72, 141.47,   15.2, 135.95, 211.16, 25621.
 235.12, 942.18,   3.16
*Material, name=UVC_web
*Density
 8e-12,
*Depvar
     10,
*User Material, constants=11
200000.,    0.3, 378.83, 122.63,  19.74, 143.49, 248.14, 31638.
 277.32, 1548.6,   9.04
*Material, name=steel_chabouche-flange
*Density
 8e-12,
*Elastic
198600., 0.3
*Plastic, hardening=COMBINED, datatype=PARAMETERS, number backstresses=2
 339.8, 11608.2,   145.2,  1026.3,     4.7
*Cyclic Hardening, parameters
 339.8, 100.7,    8.
*Material, name=steel_chabouche-flange-orig
*Density
 8e-12,
*Elastic
180000., 0.3
*Plastic, hardening=COMBINED, datatype=PARAMETERS, number backstresses=2
 318.5, 11608.2,   145.2,  1026.3,     4.7
*Cyclic Hardening, parameters
 318.5, 100.7,    8.
*Material, name=steel_chabouche-web
*Density
 8e-12,
*Elastic
185200., 0.3
*Plastic, hardening=COMBINED, datatype=PARAMETERS, number backstresses=2
 369.2, 8716.1,  118.5, 1182.1,    5.2
*Cyclic Hardening, parameters
 369.2, 77.5,  9.3
*Material, name=steel_chabouche-web-orig
*Density
 8e-12,
*Elastic
183000., 0.3
*Plastic, hardening=COMBINED, datatype=PARAMETERS, number backstresses=2
 339.2, 8716.1,  118.5, 1182.1,    5.2
*Cyclic Hardening, parameters
 339.2, 77.5,  9.3
** 
** BOUNDARY CONDITIONS
** 
** Name: bot_fix Type: Displacement/Rotation
*Boundary
_PickedSet12, 1, 1
_PickedSet12, 2, 2
_PickedSet12, 3, 3
_PickedSet12, 4, 4
_PickedSet12, 5, 5
_PickedSet12, 6, 6
** Name: top_fix Type: Displacement/Rotation
*Boundary
Set-17, 1, 1
Set-17, 5, 5
Set-17, 6, 6
*IMPERFECTION, input=C5-KC-TopRot-Imp.txt
** ----------------------------------------------------------------
** 
** STEP: gravity_loading
** 
*Step, name=gravity_loading, nlgeom=YES, inc=10000
*Static
0.1, 1., 1e-35, 0.1
** 
** LOADS
** 
** Name: gravity_load   Type: Concentrated force
*Cload
_PickedSet13, 3, -2.07e+06
** Name: mid_torque-half   Type: Moment
*Cload
Set-20, 6, 7.25e+06
** 
** OUTPUT REQUESTS
** 
*Restart, write, frequency=0
** 
** FIELD OUTPUT: F-Output-1
** 
*Output, field, variable=PRESELECT
** 
** HISTORY OUTPUT: H-Output-1
** 
*Output, history, variable=PRESELECT
*End Step
** ----------------------------------------------------------------
** 
** STEP: lateral_loading
** 
*Step, name=lateral_loading, nlgeom=YES, inc=100000000
*Static
0.125, 32., 1e-10, 0.125
** 
** BOUNDARY CONDITIONS
** 
** Name: disp_control Type: Displacement/Rotation
*Boundary, amplitude=C5_protocol
Set-19, 2, 2, 39.
** Name: rot_control Type: Displacement/Rotation
*Boundary, amplitude=c5_rot_protocol
Set-18, 4, 4, 0.01
** 
** OUTPUT REQUESTS
** 
*Restart, write, frequency=0
** 
** FIELD OUTPUT: F-Output-1
** 
*Output, field, variable=PRESELECT, time interval=0.125
** 
** HISTORY OUTPUT: H-Output-1
** 
*Output, history, variable=PRESELECT
*End Step
