*Heading
** Job name: W24X94_Dynamic-WIKC-5500 Model name: W24X94_Dynamic-WIKC-5500
** Generated by: Abaqus/CAE 6.14-1
*Preprint, echo=NO, model=NO, history=NO, contact=NO
** ----------------------------------------------------------------
** 
** PART INSTANCE: top_segment
** 
*Node
      1,           0.,  -297.399994,           0.
      2,           0.,  -297.399994,        1650.
      3,        -115.,  -297.399994,        1650.
      4,        -115.,  -297.399994,           0.
      5,         115.,  -297.399994,           0.
      6,         115.,  -297.399994,        1650.
      7,           0.,   297.399994,           0.
      8,           0.,   297.399994,        1650.
      9,        -115.,   297.399994,        1650.
     10,        -115.,   297.399994,           0.
     11,         115.,   297.399994,           0.
     12,         115.,   297.399994,        1650.
     13,           0.,  -297.399994,          25.
     14,           0.,  -297.399994,          50.
     15,           0.,  -297.399994,          75.
     16,           0.,  -297.399994,         100.
     17,           0.,  -297.399994,         125.
     18,           0.,  -297.399994,         150.
     19,           0.,  -297.399994,         175.
     20,           0.,  -297.399994,         200.
** ... 2995 like lines cut
*Element, type=S4R
  1,   1,  13, 481, 150
  2,  13,  14, 482, 481
  3,  14,  15, 483, 482
  4,  15,  16, 484, 483
  5,  16,  17, 485, 484
  6,  17,  18, 486, 485
  7,  18,  19, 487, 486
  8,  19,  20, 488, 487
  9,  20,  21, 489, 488
 10,  21,  22, 490, 489
 11,  22,  23, 491, 490
 12,  23,  24, 492, 491
 13,  24,  25, 493, 492
 14,  25,  26, 494, 493
 15,  26,  27, 495, 494
 16,  27,  28, 496, 495
 17,  28,  29, 497, 496
 18,  29,  30, 498, 497
 19,  30,  31, 499, 498
 20,  31,  32, 500, 499
** ... 2884 like lines cut
*Nset, nset=top_segment__PickedSet2
    1,    2,    3,    4,    5,    6,    7,    8,    9,   10,   11,   12,   13,   14,   15,   16
   17,   18,   19,   20,   21,   22,   23,   24,   25,   26,   27,   28,   29,   30,   31,   32
   33,   34,   35,   36,   37,   38,   39,   40,   41,   42,   43,   44,   45,   46,   47,   48
   49,   50,   51,   52,   53,   54,   55,   56,   57,   58,   59,   60,   61,   62,   63,   64
   65,   66,   67,   68,   69,   70,   71,   72,   73,   74,   75,   76,   77,   78,   79,   80
   81,   82,   83,   84,   85,   86,   87,   88,   89,   90,   91,   92,   93,   94,   95,   96
   97,   98,   99,  100,  101,  102,  103,  104,  105,  106,  107,  108,  109,  110,  111,  112
  113,  114,  115,  116,  117,  118,  119,  120,  121,  122,  123,  124,  125,  126,  127,  128
  129,  130,  131,  132,  133,  134,  135,  136,  137,  138,  139,  140,  141,  142,  143,  144
  145,  146,  147,  148,  149,  150,  151,  152,  153,  154,  155,  156,  157,  158,  159,  160
  161,  162,  163,  164,  165,  166,  167,  168,  169,  170,  171,  172,  173,  174,  175,  176
  177,  178,  179,  180,  181,  182,  183,  184,  185,  186,  187,  188,  189,  190,  191,  192
  193,  194,  195,  196,  197,  198,  199,  200,  201,  202,  203,  204,  205,  206,  207,  208
  209,  210,  211,  212,  213,  214,  215,  216,  217,  218,  219,  220,  221,  222,  223,  224
  225,  226,  227,  228,  229,  230,  231,  232,  233,  234,  235,  236,  237,  238,  239,  240
  241,  242,  243,  244,  245,  246,  247,  248,  249,  250,  251,  252,  253,  254,  255,  256
  257,  258,  259,  260,  261,  262,  263,  264,  265,  266,  267,  268,  269,  270,  271,  272
  273,  274,  275,  276,  277,  278,  279,  280,  281,  282,  283,  284,  285,  286,  287,  288
  289,  290,  291,  292,  293,  294,  295,  296,  297,  298,  299,  300,  301,  302,  303,  304
  305,  306,  307,  308,  309,  310,  311,  312,  313,  314,  315,  316,  317,  318,  319,  320
** ... 73 like lines cut
*Elset, elset=top_segment__PickedSet2, generate
    1,  1320,     1
*Nset, nset=top_segment__G3
    1,    2,    7,    8,   13,   14,   15,   16,   17,   18,   19,   20,   21,   22,   23,   24
   25,   26,   27,   28,   29,   30,   31,   32,   33,   34,   35,   36,   37,   38,   39,   40
   41,   42,   43,   44,   45,   46,   47,   48,   49,   50,   51,   52,   53,   54,   55,   56
   57,   58,   59,   60,   61,   62,   63,   64,   65,   66,   67,   68,   69,   70,   71,   72
   73,   74,   75,   76,   77,  224,  225,  226,  227,  228,  229,  230,  231,  232,  233,  234
  235,  236,  237,  238,  239,  240,  241,  242,  243,  244,  245,  246,  247,  248,  249,  250
  251,  252,  253,  254,  255,  256,  257,  258,  259,  260,  261,  262,  263,  264,  265,  266
  267,  268,  269,  270,  271,  272,  273,  274,  275,  276,  277,  278,  279,  280,  281,  282
  283,  284,  285,  286,  287,  288,  435,  436,  437,  438,  439,  440,  441,  442,  443,  444
  445,  446,  447,  448,  449,  450,  451,  452,  453,  454,  455,  456,  457,  458,  459,  460
  461,  462,  463,  464,  465,  466,  467,  468,  469,  470,  471,  472,  473,  474,  475,  476
  477,  478,  479,  480, 1521, 1522, 1523, 1524, 1525, 1526, 1527, 1528, 1529, 1530, 1531, 1532
 1533, 1534, 1535, 1536, 1537, 1538, 1539, 1540, 1541, 1542, 1543, 1544, 1545, 1546, 1547, 1548
 1549, 1550, 1551, 1552, 1553, 1554, 1555, 1556, 1557, 1558, 1559, 1560, 1561, 1562, 1563, 1564
 1565, 1566, 1567, 1568, 1569, 1570, 1571, 1572, 1573, 1574, 1575, 1576, 1577, 1578, 1579, 1580
 1581, 1582, 1583, 1584, 1585, 1586, 1587, 1588, 1589, 1590, 1591, 1592, 1593, 1594, 1595, 1596
 1597, 1598, 1599, 1600, 1601, 1602, 1603, 1604, 1605, 1606, 1607, 1608, 1609, 1610, 1611, 1612
 1613, 1614, 1615, 1616, 1617, 1618, 1619, 1620, 1621, 1622, 1623, 1624, 1625, 1626, 1627, 1628
 1629, 1630, 1631, 1632, 1633, 1634, 1635, 1636, 1637, 1638, 1639, 1640, 1641, 1642, 1643, 1644
 1645, 1646, 1647, 1648, 1649, 1650, 1651, 1652, 1653, 1654, 1655, 1656, 1657, 1658, 1659, 1660
** ... 85 like lines cut
*Elset, elset=top_segment__G3, generate
 1321,  2904,     1
*Nset, nset=top_segment_shell_top_nodes
   2,   3,   6,   8,   9,  12,  78,  79,  80,  81, 220, 221, 222, 223, 289, 290
 291, 292, 431, 432, 433, 434, 435, 436, 437, 438, 439, 440, 441, 442, 443, 444
 445, 446, 447, 448, 449, 450, 451, 452, 453, 454, 455, 456, 457
*Elset, elset=top_segment_shell_top_nodes
   66,  132,  198,  264,  330,  331,  397,  463,  529,  595,  726,  792,  858,  924,  990,  991
 1057, 1123, 1189, 1255, 1321, 1322, 1323, 1324, 1325, 1326, 1327, 1328, 1329, 1330, 1331, 1332
 1333, 1334, 1335, 1336, 1337, 1338, 1339, 1340, 1341, 1342, 1343, 1344
*Nset, nset=top_segment_shell_bot_nodes
   1,   4,   5,   7,  10,  11, 147, 148, 149, 150, 151, 152, 153, 154, 358, 359
 360, 361, 362, 363, 364, 365, 458, 459, 460, 461, 462, 463, 464, 465, 466, 467
 468, 469, 470, 471, 472, 473, 474, 475, 476, 477, 478, 479, 480
*Elset, elset=top_segment_shell_bot_nodes
    1,   67,  133,  199,  265,  396,  462,  528,  594,  660,  661,  727,  793,  859,  925, 1056
 1122, 1188, 1254, 1320, 2881, 2882, 2883, 2884, 2885, 2886, 2887, 2888, 2889, 2890, 2891, 2892
 2893, 2894, 2895, 2896, 2897, 2898, 2899, 2900, 2901, 2902, 2903, 2904
** Section: flange_section
*Shell Section, elset=top_segment__PickedSet2, material=steel_chabouche-flange, controls=EC-1
22., 5
*Transverse Shear
1.4e+06, 1.4e+06, 0.
** Section: web_section
*Shell Section, elset=top_segment__G3, material=steel_chabouche-web, controls=EC-1
13., 5
*Transverse Shear
840000., 840000., 0.
** ----------------------------------------------------------------
** 
** PART INSTANCE: shell_segment-1
** 
*System
          0.,          0.,       3850.,          1.,          0.,       3850.
*Node
   3016,           0.,  -297.399994,           0.
   3017,           0.,  -297.399994,        1650.
   3018,        -115.,  -297.399994,        1650.
   3019,        -115.,  -297.399994,           0.
   3020,         115.,  -297.399994,           0.
   3021,         115.,  -297.399994,        1650.
   3022,           0.,   297.399994,           0.
   3023,           0.,   297.399994,        1650.
   3024,        -115.,   297.399994,        1650.
   3025,        -115.,   297.399994,           0.
   3026,         115.,   297.399994,           0.
   3027,         115.,   297.399994,        1650.
   3028,           0.,  -297.399994,          25.
   3029,           0.,  -297.399994,          50.
   3030,           0.,  -297.399994,          75.
   3031,           0.,  -297.399994,         100.
   3032,           0.,  -297.399994,         125.
   3033,           0.,  -297.399994,         150.
   3034,           0.,  -297.399994,         175.
   3035,           0.,  -297.399994,         200.
** ... 2995 like lines cut
*Element, type=S4R
2905, 3016, 3028, 3496, 3165
2906, 3028, 3029, 3497, 3496
2907, 3029, 3030, 3498, 3497
2908, 3030, 3031, 3499, 3498
2909, 3031, 3032, 3500, 3499
2910, 3032, 3033, 3501, 3500
2911, 3033, 3034, 3502, 3501
2912, 3034, 3035, 3503, 3502
2913, 3035, 3036, 3504, 3503
2914, 3036, 3037, 3505, 3504
2915, 3037, 3038, 3506, 3505
2916, 3038, 3039, 3507, 3506
2917, 3039, 3040, 3508, 3507
2918, 3040, 3041, 3509, 3508
2919, 3041, 3042, 3510, 3509
2920, 3042, 3043, 3511, 3510
2921, 3043, 3044, 3512, 3511
2922, 3044, 3045, 3513, 3512
2923, 3045, 3046, 3514, 3513
2924, 3046, 3047, 3515, 3514
** ... 2884 like lines cut
*Nset, nset=shell_segment-1__PickedSet2
 3016, 3017, 3018, 3019, 3020, 3021, 3022, 3023, 3024, 3025, 3026, 3027, 3028, 3029, 3030, 3031
 3032, 3033, 3034, 3035, 3036, 3037, 3038, 3039, 3040, 3041, 3042, 3043, 3044, 3045, 3046, 3047
 3048, 3049, 3050, 3051, 3052, 3053, 3054, 3055, 3056, 3057, 3058, 3059, 3060, 3061, 3062, 3063
 3064, 3065, 3066, 3067, 3068, 3069, 3070, 3071, 3072, 3073, 3074, 3075, 3076, 3077, 3078, 3079
 3080, 3081, 3082, 3083, 3084, 3085, 3086, 3087, 3088, 3089, 3090, 3091, 3092, 3093, 3094, 3095
 3096, 3097, 3098, 3099, 3100, 3101, 3102, 3103, 3104, 3105, 3106, 3107, 3108, 3109, 3110, 3111
 3112, 3113, 3114, 3115, 3116, 3117, 3118, 3119, 3120, 3121, 3122, 3123, 3124, 3125, 3126, 3127
 3128, 3129, 3130, 3131, 3132, 3133, 3134, 3135, 3136, 3137, 3138, 3139, 3140, 3141, 3142, 3143
 3144, 3145, 3146, 3147, 3148, 3149, 3150, 3151, 3152, 3153, 3154, 3155, 3156, 3157, 3158, 3159
 3160, 3161, 3162, 3163, 3164, 3165, 3166, 3167, 3168, 3169, 3170, 3171, 3172, 3173, 3174, 3175
 3176, 3177, 3178, 3179, 3180, 3181, 3182, 3183, 3184, 3185, 3186, 3187, 3188, 3189, 3190, 3191
 3192, 3193, 3194, 3195, 3196, 3197, 3198, 3199, 3200, 3201, 3202, 3203, 3204, 3205, 3206, 3207
 3208, 3209, 3210, 3211, 3212, 3213, 3214, 3215, 3216, 3217, 3218, 3219, 3220, 3221, 3222, 3223
 3224, 3225, 3226, 3227, 3228, 3229, 3230, 3231, 3232, 3233, 3234, 3235, 3236, 3237, 3238, 3239
 3240, 3241, 3242, 3243, 3244, 3245, 3246, 3247, 3248, 3249, 3250, 3251, 3252, 3253, 3254, 3255
 3256, 3257, 3258, 3259, 3260, 3261, 3262, 3263, 3264, 3265, 3266, 3267, 3268, 3269, 3270, 3271
 3272, 3273, 3274, 3275, 3276, 3277, 3278, 3279, 3280, 3281, 3282, 3283, 3284, 3285, 3286, 3287
 3288, 3289, 3290, 3291, 3292, 3293, 3294, 3295, 3296, 3297, 3298, 3299, 3300, 3301, 3302, 3303
 3304, 3305, 3306, 3307, 3308, 3309, 3310, 3311, 3312, 3313, 3314, 3315, 3316, 3317, 3318, 3319
 3320, 3321, 3322, 3323, 3324, 3325, 3326, 3327, 3328, 3329, 3330, 3331, 3332, 3333, 3334, 3335
** ... 73 like lines cut
*Elset, elset=shell_segment-1__PickedSet2, generate
 2905,  4224,     1
*Nset, nset=shell_segment-1__G3
 3016, 3017, 3022, 3023, 3028, 3029, 3030, 3031, 3032, 3033, 3034, 3035, 3036, 3037, 3038, 3039
 3040, 3041, 3042, 3043, 3044, 3045, 3046, 3047, 3048, 3049, 3050, 3051, 3052, 3053, 3054, 3055
 3056, 3057, 3058, 3059, 3060, 3061, 3062, 3063, 3064, 3065, 3066, 3067, 3068, 3069, 3070, 3071
 3072, 3073, 3074, 3075, 3076, 3077, 3078, 3079, 3080, 3081, 3082, 3083, 3084, 3085, 3086, 3087
 3088, 3089, 3090, 3091, 3092, 3239, 3240, 3241, 3242, 3243, 3244, 3245, 3246, 3247, 3248, 3249
 3250, 3251, 3252, 3253, 3254, 3255, 3256, 3257, 3258, 3259, 3260, 3261, 3262, 3263, 3264, 3265
 3266, 3267, 3268, 3269, 3270, 3271, 3272, 3273, 3274, 3275, 3276, 3277, 3278, 3279, 3280, 3281
 3282, 3283, 3284, 3285, 3286, 3287, 3288, 3289, 3290, 3291, 3292, 3293, 3294, 3295, 3296, 3297
 3298, 3299, 3300, 3301, 3302, 3303, 3450, 3451, 3452, 3453, 3454, 3455, 3456, 3457, 3458, 3459
 3460, 3461, 3462, 3463, 3464, 3465, 3466, 3467, 3468, 3469, 3470, 3471, 3472, 3473, 3474, 3475
 3476, 3477, 3478, 3479, 3480, 3481, 3482, 3483, 3484, 3485, 3486, 3487, 3488, 3489, 3490, 3491
 3492, 3493, 3494, 3495, 4536, 4537, 4538, 4539, 4540, 4541, 4542, 4543, 4544, 4545, 4546, 4547
 4548, 4549, 4550, 4551, 4552, 4553, 4554, 4555, 4556, 4557, 4558, 4559, 4560, 4561, 4562, 4563
 4564, 4565, 4566, 4567, 4568, 4569, 4570, 4571, 4572, 4573, 4574, 4575, 4576, 4577, 4578, 4579
 4580, 4581, 4582, 4583, 4584, 4585, 4586, 4587, 4588, 4589, 4590, 4591, 4592, 4593, 4594, 4595
 4596, 4597, 4598, 4599, 4600, 4601, 4602, 4603, 4604, 4605, 4606, 4607, 4608, 4609, 4610, 4611
 4612, 4613, 4614, 4615, 4616, 4617, 4618, 4619, 4620, 4621, 4622, 4623, 4624, 4625, 4626, 4627
 4628, 4629, 4630, 4631, 4632, 4633, 4634, 4635, 4636, 4637, 4638, 4639, 4640, 4641, 4642, 4643
 4644, 4645, 4646, 4647, 4648, 4649, 4650, 4651, 4652, 4653, 4654, 4655, 4656, 4657, 4658, 4659
 4660, 4661, 4662, 4663, 4664, 4665, 4666, 4667, 4668, 4669, 4670, 4671, 4672, 4673, 4674, 4675
** ... 85 like lines cut
*Elset, elset=shell_segment-1__G3, generate
 4225,  5808,     1
*Nset, nset=shell_segment-1_shell_top_nodes
3017,3018,3021,3023,3024,3027,3093,3094,3095,3096,3235,3236,3237,3238,3304,3305
3306,3307,3446,3447,3448,3449,3450,3451,3452,3453,3454,3455,3456,3457,3458,3459
3460,3461,3462,3463,3464,3465,3466,3467,3468,3469,3470,3471,3472
*Elset, elset=shell_segment-1_shell_top_nodes
 2970, 3036, 3102, 3168, 3234, 3235, 3301, 3367, 3433, 3499, 3630, 3696, 3762, 3828, 3894, 3895
 3961, 4027, 4093, 4159, 4225, 4226, 4227, 4228, 4229, 4230, 4231, 4232, 4233, 4234, 4235, 4236
 4237, 4238, 4239, 4240, 4241, 4242, 4243, 4244, 4245, 4246, 4247, 4248
*Nset, nset=shell_segment-1_shell_bot_nodes
3016,3019,3020,3022,3025,3026,3162,3163,3164,3165,3166,3167,3168,3169,3373,3374
3375,3376,3377,3378,3379,3380,3473,3474,3475,3476,3477,3478,3479,3480,3481,3482
3483,3484,3485,3486,3487,3488,3489,3490,3491,3492,3493,3494,3495
*Elset, elset=shell_segment-1_shell_bot_nodes
 2905, 2971, 3037, 3103, 3169, 3300, 3366, 3432, 3498, 3564, 3565, 3631, 3697, 3763, 3829, 3960
 4026, 4092, 4158, 4224, 5785, 5786, 5787, 5788, 5789, 5790, 5791, 5792, 5793, 5794, 5795, 5796
 5797, 5798, 5799, 5800, 5801, 5802, 5803, 5804, 5805, 5806, 5807, 5808
** Section: flange_section
*Shell Section, elset=shell_segment-1__PickedSet2, material=steel_chabouche-flange, controls=EC-1
22., 5
*Transverse Shear
1.4e+06, 1.4e+06, 0.
** Section: web_section
*Shell Section, elset=shell_segment-1__G3, material=steel_chabouche-web, controls=EC-1
13., 5
*Transverse Shear
840000., 840000., 0.
** ----------------------------------------------------------------
** 
** PART INSTANCE: beam_segment-1
** 
*System
          0.,          0.,       1470., 6.12323399573677e-17,          0.,       1471.
          0.,          1.,       1470.
*Node
   6031,         180.,           0.,           0.
   6032,        1280.,           0.,           0.
   6033,        2380.,           0.,           0.
   6034,         730.,           0.,           0.
   6035,        1830.,           0.,           0.
*Element, type=B31OS
5809, 6031, 6034
5810, 6034, 6032
5811, 6032, 6035
5812, 6035, 6033
*Nset, nset=beam_segment-1_beam_node_bot
6031,
*Nset, nset=beam_segment-1_beam_node_top
6033,
*Nset, nset=beam_segment-1_beam_node_mid
6032,
*Nset, nset=beam_segment-1_Set-1, generate
6031, 6035,  1
*Elset, elset=beam_segment-1_Set-1, generate
5809, 5812,  1
*Nset, nset=beam_segment-1_Set-2, generate
6031, 6035,  1
*Elset, elset=beam_segment-1_Set-2, generate
5809, 5812,  1
** Section: beam_section  Profile: W24X94
*Beam Section, elset=beam_segment-1_Set-1, material=steel_chabouche-flange, temperature=GRADIENTS, section=I
307.4, 314.8, 230., 230., 22., 22., 13.
1.,0.,-6.12323e-17
*System
*Node
   6036,           0.,           0.,        5500.
*Node
   6037,           0.,           0.,           0.
*Nset, nset=Set-10
6036,
*Nset, nset=Set-11
6036,
*Nset, nset=Set-12
6036,
*Nset, nset=Set-13
6037,
*Nset, nset=base_node
6037,
*Nset, nset=control_node
6036,
*Nset, nset=_PickedSet7
6036,
*Nset, nset=_PickedSet8
6037,
*Nset, nset=_PickedSet12
6037,
*Nset, nset=_PickedSet13
6036,
*Elset, elset=_s_Surf-1_SNEG, generate
    1,  2904,     1
*Surface, type=ELEMENT, name=s_Surf-1
_s_Surf-1_SNEG, SNEG
** Constraint: rigid_base
*Rigid Body, ref node=_PickedSet8, tie nset=top_segment_shell_bot_nodes
** Constraint: top_plate
*Rigid Body, ref node=_PickedSet7, tie nset=shell_segment-1_shell_top_nodes
*Element, type=MASS, elset=Set-12_Inertia-1_
5813, 6036
*Mass, elset=Set-12_Inertia-1_, type=ANISOTROPIC, alpha=0.168
0., 766.5, 0.
** 
** ELEMENT CONTROLS
** 
*Section Controls, name=EC-1, hourglass=ENHANCED
1., 1., 1.
*Amplitude, name=nr94cnp, definition=EQUALLY SPACED, fixed interval=0.01
             0.,        -0.00122,        -0.00117,         -0.0012,        -0.00116,        -0.00119,        -0.00113,        -0.00114
       -0.00109,        -0.00111,        -0.00106,        -0.00112,        -0.00108,         -0.0011,        -0.00105,        -0.00102
      -0.000921,       -0.000986,        -0.00102,        -0.00105,        -0.00098,       -0.000905,       -0.000778,       -0.000815
      -0.000827,       -0.000995,       -0.000757,       -0.000679,       -0.000628,        -0.00066,       -0.000555,       -0.000798
      -0.000854,       -0.000605,       -0.000285,       -9.23e-05,         8.3e-05,        3.81e-05,        7.05e-05,       -0.000752
      -0.000681,        -0.00026,       -0.000192,       -0.000697,       -0.000949,        -0.00126,       -0.000798,       -0.000763
      -0.000783,        -0.00135,        -0.00156,        -0.00158,        -0.00118,        0.000231,         0.00245,         0.00237
        0.00114,        6.73e-05,       -0.000535,       -0.000629,        0.000138,        0.000662,         0.00152,        0.000872
       -0.00129,        -0.00277,        -0.00299,        -0.00223,        -0.00187,        -0.00322,        -0.00553,        -0.00712
       -0.00648,        -0.00409,        0.000171,         0.00333,         0.00506,         0.00588,         0.00327,       -1.12e-05
      -0.000419,        0.000538,        0.000404,        -0.00162,       -0.000564,         0.00332,         0.00568,          0.0069
        0.00508,        0.000472,        -0.00525,        -0.00953,        -0.00951,        -0.00564,       -0.000126,         0.00296
         0.0031,       -0.000104,        -0.00297,        -0.00238,         0.00116,         0.00204,         0.00112,          -0.002
       -0.00598,        -0.00679,        -0.00181,         0.00315,         0.00386,         0.00227,         0.00206,         0.00334
        0.00572,         0.00823,          0.0089,         0.00868,          0.0103,          0.0134,          0.0106,         0.00635
        0.00194,         -0.0029,        -0.00674,         -0.0061,         0.00741,           0.017,          0.0161,          0.0101
         0.0052,         0.00626,         0.00985,         0.00999,         0.00752,         0.00248,         0.00036,         0.00542
        0.00897,         0.00332,        -0.00886,         -0.0173,         -0.0158,         -0.0104,        -0.00848,         -0.0049
        0.00118,          0.0082,          0.0177,           0.023,           0.022,          0.0196,          0.0182,          0.0135
        0.00625,         0.00235,         0.00417,         0.00676,         0.00858,         0.00773,         0.00856,           0.011
** ... 292 like lines cut
** 
** MATERIALS
** 
*Material, name=UVC_flange
*Density
 8e-12,
*Depvar
     10,
*User Material, constants=11
200000.,    0.3, 373.72, 141.47,   15.2, 135.95, 211.16, 25621.
 235.12, 942.18,   3.16
*Material, name=UVC_web
*Density
 8e-12,
*Depvar
     10,
*User Material, constants=11
200000.,    0.3, 378.83, 122.63,  19.74, 143.49, 248.14, 31638.
 277.32, 1548.6,   9.04
*Material, name=steel_chabouche-flange
*Density
 8e-12,
*Elastic
198600., 0.3
*Plastic, hardening=COMBINED, datatype=PARAMETERS, number backstresses=2
 339.8, 11608.2,   145.2,  1026.3,     4.7
*Cyclic Hardening, parameters
 339.8, 100.7,    8.
*Material, name=steel_chabouche-web
*Density
 8e-12,
*Elastic
185200., 0.3
*Plastic, hardening=COMBINED, datatype=PARAMETERS, number backstresses=2
 369.2, 8716.1,  118.5, 1182.1,    5.2
*Cyclic Hardening, parameters
 369.2, 77.5,  9.3
** 
** BOUNDARY CONDITIONS
** 
** Name: bot_fix Type: Displacement/Rotation
*Boundary
_PickedSet12, 1, 1
_PickedSet12, 2, 2
_PickedSet12, 3, 3
_PickedSet12, 4, 4
_PickedSet12, 5, 5
_PickedSet12, 6, 6
** Name: top_fix Type: Displacement/Rotation
*Boundary
Set-11, 1, 1
Set-11, 4, 4
Set-11, 5, 5
Set-11, 6, 6
*IMPERFECTION, input=W24X94_Dynamic-KC-5500-Imp.txt
** ----------------------------------------------------------------
** 
** STEP: gravity_loading
** 
*Step, name=gravity_loading, nlgeom=YES, inc=10000
*Static
0.1, 1., 1e-35, 0.1
** 
** LOADS
** 
** Name: gravity_load   Type: Concentrated force
*Cload
_PickedSet13, 3, -1.3e+06
** Name: mid_torque   Type: Moment
*Cload
beam_segment-1_beam_node_mid, 6, 1e+07
** 
** OUTPUT REQUESTS
** 
*Restart, write, frequency=0
** 
** FIELD OUTPUT: F-Output-1
** 
*Output, field, variable=PRESELECT
** 
** HISTORY OUTPUT: H-Output-1
** 
*Output, history, variable=PRESELECT
*End Step
** ----------------------------------------------------------------
** 
** STEP: dynamic_loading
** 
*Step, name=dynamic_loading, nlgeom=YES, inc=100000000
*Dynamic
0.01,25.,1e-08,0.01
** 
** BOUNDARY CONDITIONS
** 
** Name: base_accel Type: Acceleration/Angular acceleration
*Boundary, op=NEW, amplitude=nr94cnp, type=ACCELERATION
Set-13, 2, 2, 9810.
** Name: bot_fix Type: Displacement/Rotation
*Boundary, op=NEW
_PickedSet12, 1, 1
_PickedSet12, 3, 3
_PickedSet12, 4, 4
_PickedSet12, 5, 5
_PickedSet12, 6, 6
** Name: top_fix Type: Displacement/Rotation
*Boundary, op=NEW
Set-11, 1, 1
Set-11, 4, 4
Set-11, 5, 5
Set-11, 6, 6
** 
** OUTPUT REQUESTS
** 
*Restart, write, frequency=0
** 
** FIELD OUTPUT: F-Output-1
** 
*Output, field, variable=PRESELECT, time interval=0.01
** 
** HISTORY OUTPUT: H-Output-1
** 
*Output, history, variable=PRESELECT, frequency=1
*End Step
